<routes>
  <!-- 1) vehicle type -->
  <vType id="car" accel="2.6" decel="4.5" sigma="0.5" length="5" maxSpeed="70"/>

  <!-- 2) four elementary routes through the intersection -->
  <route id="r0" edges="A0A1 A1B1"/>
  <route id="r1" edges="B1B0 B0A0"/>
  <route id="r2" edges="A0B0 B0B1"/>
  <route id="r3" edges="B1A1 A1A0"/>

  <!-- 3) twenty vehicles, alternating routes, departing every 2 seconds -->
  <!-- IDs veh0…veh19, depart times 0,2,4,…,38 -->
  <!-- route assignment: veh<i> → r{i%4} -->
  <vehicle id="veh0"  type="car" route="r0" depart="0"/>
  <vehicle id="veh1"  type="car" route="r1" depart="2"/>
  <vehicle id="veh2"  type="car" route="r2" depart="4"/>
  <vehicle id="veh3"  type="car" route="r3" depart="6"/>
  <vehicle id="veh4"  type="car" route="r0" depart="8"/>
  <vehicle id="veh5"  type="car" route="r1" depart="10"/>
  <vehicle id="veh6"  type="car" route="r2" depart="12"/>
  <vehicle id="veh7"  type="car" route="r3" depart="14"/>
  <vehicle id="veh8"  type="car" route="r0" depart="16"/>
  <vehicle id="veh9"  type="car" route="r1" depart="18"/>
  <vehicle id="veh10" type="car" route="r2" depart="20"/>
  <vehicle id="veh11" type="car" route="r3" depart="22"/>
  <vehicle id="veh12" type="car" route="r0" depart="24"/>
  <vehicle id="veh13" type="car" route="r1" depart="26"/>
  <vehicle id="veh14" type="car" route="r2" depart="28"/>
  <vehicle id="veh15" type="car" route="r3" depart="30"/>
  <vehicle id="veh16" type="car" route="r0" depart="32"/>
  <vehicle id="veh17" type="car" route="r1" depart="34"/>
  <vehicle id="veh18" type="car" route="r2" depart="36"/>
  <vehicle id="veh19" type="car" route="r3" depart="38"/>
</routes>
