<?xml version="1.0" encoding="UTF-8"?>

<!-- generated on 2025-05-07 20:54:13.595764 by osmWebWizard.py v1_22_0+0002-63e50f52594
<configuration>
    <net-file value="E:\SUMO\tools\2025-05-07-20-53-58\osm.net.xml.gz"/>
    <additional-files value="E:\SUMO\tools\2025-05-07-20-53-58\osm_stops.add.xml,E:\SUMO\tools\2025-05-07-20-53-58\osm_pt.rou.xml"/>
    <output-trip-file value="E:\SUMO\tools\2025-05-07-20-53-58\osm.pedestrian.trips.xml"/>
    <route-file value="E:\SUMO\tools\2025-05-07-20-53-58\osm.pedestrian.rou.xml"/>
    <persontrips value="True"/>
    <persontrip.walk-opposite-factor value="0.8"/>
    <prefix value="ped"/>
    <trip-attributes value="modes=&quot;public&quot;"/>
    <vehicle-class value="pedestrian"/>
    <fringe-factor value="1"/>
    <end value="600.0"/>
    <insertion-density value="50.0"/>
    <duarouter-weights.tls-penalty value="20"/>
</configuration>
-->

<routes xmlns:xsi="http://www.w3.org/2001/XMLSchema-instance" xsi:noNamespaceSchemaLocation="http://sumo.dlr.de/xsd/routes_file.xsd">
    <vType id="ped_pedestrian" vClass="pedestrian"/>
    <person id="ped0" depart="0.00" type="ped_pedestrian">
        <personTrip from="705961947#1" to="-1211532835" modes="public"/>
    </person>
    <person id="ped1" depart="1.36" type="ped_pedestrian">
        <personTrip from="145335922#1" to="1179994246#1" modes="public"/>
    </person>
    <person id="ped2" depart="2.72" type="ped_pedestrian">
        <personTrip from="738342098#1" to="738342054#1" modes="public"/>
    </person>
    <person id="ped3" depart="4.07" type="ped_pedestrian">
        <personTrip from="739669529#2" to="-241869417#0" modes="public"/>
    </person>
    <person id="ped4" depart="5.43" type="ped_pedestrian">
        <personTrip from="338539032#1" to="-1318790754" modes="public"/>
    </person>
    <person id="ped5" depart="6.79" type="ped_pedestrian">
        <personTrip from="1151078380" to="54643636#6" modes="public"/>
    </person>
    <person id="ped6" depart="8.15" type="ped_pedestrian">
        <personTrip from="-1300523646" to="1040199119#1" modes="public"/>
    </person>
    <person id="ped7" depart="9.51" type="ped_pedestrian">
        <personTrip from="738342025#0" to="581641914#0" modes="public"/>
    </person>
    <person id="ped8" depart="10.87" type="ped_pedestrian">
        <personTrip from="1151197766" to="581642013#1" modes="public"/>
    </person>
    <person id="ped9" depart="12.22" type="ped_pedestrian">
        <personTrip from="738342149#0" to="-1040199118" modes="public"/>
    </person>
    <person id="ped10" depart="13.58" type="ped_pedestrian">
        <personTrip from="738342145#1" to="738342070#1" modes="public"/>
    </person>
    <person id="ped11" depart="14.94" type="ped_pedestrian">
        <personTrip from="174979610#4" to="-581641991#0" modes="public"/>
    </person>
    <person id="ped12" depart="16.30" type="ped_pedestrian">
        <personTrip from="739669589#2" to="174979607#1" modes="public"/>
    </person>
    <person id="ped13" depart="17.66" type="ped_pedestrian">
        <personTrip from="-241968243#1" to="-242274290" modes="public"/>
    </person>
    <person id="ped14" depart="19.01" type="ped_pedestrian">
        <personTrip from="739669498#0" to="686161869#0" modes="public"/>
    </person>
    <person id="ped15" depart="20.37" type="ped_pedestrian">
        <personTrip from="738342146#1" to="738342093#2" modes="public"/>
    </person>
    <person id="ped16" depart="21.73" type="ped_pedestrian">
        <personTrip from="581641902#1" to="739669602#0" modes="public"/>
    </person>
    <person id="ped17" depart="23.09" type="ped_pedestrian">
        <personTrip from="241974851#2" to="581641919#1" modes="public"/>
    </person>
    <person id="ped18" depart="24.45" type="ped_pedestrian">
        <personTrip from="738342162#5" to="686161883#0" modes="public"/>
    </person>
    <person id="ped19" depart="25.81" type="ped_pedestrian">
        <personTrip from="739669508#1" to="581641989#2" modes="public"/>
    </person>
    <person id="ped20" depart="27.16" type="ped_pedestrian">
        <personTrip from="738342078#0" to="-172513887#1" modes="public"/>
    </person>
    <person id="ped21" depart="28.52" type="ped_pedestrian">
        <personTrip from="1179994251" to="172513889#0" modes="public"/>
    </person>
    <person id="ped22" depart="29.88" type="ped_pedestrian">
        <personTrip from="-175018554#1" to="1193786324" modes="public"/>
    </person>
    <person id="ped23" depart="31.24" type="ped_pedestrian">
        <personTrip from="-278420614#0" to="147085007" modes="public"/>
    </person>
    <person id="ped24" depart="32.60" type="ped_pedestrian">
        <personTrip from="686161899#2" to="176341541#0" modes="public"/>
    </person>
    <person id="ped25" depart="33.95" type="ped_pedestrian">
        <personTrip from="241869417#2" to="109901549#0" modes="public"/>
    </person>
    <person id="ped26" depart="35.31" type="ped_pedestrian">
        <personTrip from="143733744#0" to="739669574#1" modes="public"/>
    </person>
    <person id="ped27" depart="36.67" type="ped_pedestrian">
        <personTrip from="738342023#0" to="686161873#0" modes="public"/>
    </person>
    <person id="ped28" depart="38.03" type="ped_pedestrian">
        <personTrip from="-738342138#0" to="738342093#1" modes="public"/>
    </person>
    <person id="ped29" depart="39.39" type="ped_pedestrian">
        <personTrip from="-621949988#0" to="241974851#3" modes="public"/>
    </person>
    <person id="ped30" depart="40.75" type="ped_pedestrian">
        <personTrip from="774714142#1" to="736669115#0" modes="public"/>
    </person>
    <person id="ped31" depart="42.10" type="ped_pedestrian">
        <personTrip from="581641930#0" to="738342060#2" modes="public"/>
    </person>
    <person id="ped32" depart="43.46" type="ped_pedestrian">
        <personTrip from="739669494#0" to="738342130#2" modes="public"/>
    </person>
    <person id="ped33" depart="44.82" type="ped_pedestrian">
        <personTrip from="1193768396#0" to="-143733744#0" modes="public"/>
    </person>
    <person id="ped34" depart="46.18" type="ped_pedestrian">
        <personTrip from="173823265" to="143733744#1" modes="public"/>
    </person>
    <person id="ped35" depart="47.54" type="ped_pedestrian">
        <personTrip from="1112225030" to="739669578#1" modes="public"/>
    </person>
    <person id="ped36" depart="48.89" type="ped_pedestrian">
        <personTrip from="739669517#1" to="173823055" modes="public"/>
    </person>
    <person id="ped37" depart="50.25" type="ped_pedestrian">
        <personTrip from="738342026#7" to="278423474#1" modes="public"/>
    </person>
    <person id="ped38" depart="51.61" type="ped_pedestrian">
        <personTrip from="739669551" to="482049398#5" modes="public"/>
    </person>
    <person id="ped39" depart="52.97" type="ped_pedestrian">
        <personTrip from="142841686#0" to="1256612928#2" modes="public"/>
    </person>
    <person id="ped40" depart="54.33" type="ped_pedestrian">
        <personTrip from="581641943" to="132564364#2" modes="public"/>
    </person>
    <person id="ped41" depart="55.69" type="ped_pedestrian">
        <personTrip from="581641999" to="739669535#1" modes="public"/>
    </person>
    <person id="ped42" depart="57.04" type="ped_pedestrian">
        <personTrip from="279740160#2" to="1151197765#1" modes="public"/>
    </person>
    <person id="ped43" depart="58.40" type="ped_pedestrian">
        <personTrip from="968480164#1" to="54750112#1" modes="public"/>
    </person>
    <person id="ped44" depart="59.76" type="ped_pedestrian">
        <personTrip from="-241869420" to="-172513887#5" modes="public"/>
    </person>
    <person id="ped45" depart="61.12" type="ped_pedestrian">
        <personTrip from="-315368448" to="686161890#1" modes="public"/>
    </person>
    <person id="ped46" depart="62.48" type="ped_pedestrian">
        <personTrip from="738342138#5" to="338539032#1" modes="public"/>
    </person>
    <person id="ped47" depart="63.83" type="ped_pedestrian">
        <personTrip from="-172575635#4" to="242276850#1" modes="public"/>
    </person>
    <person id="ped48" depart="65.19" type="ped_pedestrian">
        <personTrip from="968480163#3" to="581641893#1" modes="public"/>
    </person>
    <person id="ped49" depart="66.55" type="ped_pedestrian">
        <personTrip from="739669600" to="739669508#0" modes="public"/>
    </person>
    <person id="ped50" depart="67.91" type="ped_pedestrian">
        <personTrip from="-1113239917" to="738342088" modes="public"/>
    </person>
    <person id="ped51" depart="69.27" type="ped_pedestrian">
        <personTrip from="738342059#1" to="581641902#2" modes="public"/>
    </person>
    <person id="ped52" depart="70.63" type="ped_pedestrian">
        <personTrip from="143732681" to="736669115#1" modes="public"/>
    </person>
    <person id="ped53" depart="71.98" type="ped_pedestrian">
        <personTrip from="-346933597" to="41558495#1" modes="public"/>
    </person>
    <person id="ped54" depart="73.34" type="ped_pedestrian">
        <personTrip from="448004538" to="739669586#5" modes="public"/>
    </person>
    <person id="ped55" depart="74.70" type="ped_pedestrian">
        <personTrip from="739669517#0" to="132564366#0" modes="public"/>
    </person>
    <person id="ped56" depart="76.06" type="ped_pedestrian">
        <personTrip from="54643630#7" to="-739669588" modes="public"/>
    </person>
    <person id="ped57" depart="77.42" type="ped_pedestrian">
        <personTrip from="739669550#0" to="739669513#0" modes="public"/>
    </person>
    <person id="ped58" depart="78.77" type="ped_pedestrian">
        <personTrip from="172517265#3" to="705961947#0" modes="public"/>
    </person>
    <person id="ped59" depart="80.13" type="ped_pedestrian">
        <personTrip from="686161872#1" to="-581641964" modes="public"/>
    </person>
    <person id="ped60" depart="81.49" type="ped_pedestrian">
        <personTrip from="738342121#0" to="581641907#0" modes="public"/>
    </person>
    <person id="ped61" depart="82.85" type="ped_pedestrian">
        <personTrip from="738342131#3" to="581641895" modes="public"/>
    </person>
    <person id="ped62" depart="84.21" type="ped_pedestrian">
        <personTrip from="-101220223#0" to="173829549#2" modes="public"/>
    </person>
    <person id="ped63" depart="85.57" type="ped_pedestrian">
        <personTrip from="-1151197766" to="739669568#0" modes="public"/>
    </person>
    <person id="ped64" depart="86.92" type="ped_pedestrian">
        <personTrip from="739669520#0" to="738342164#0" modes="public"/>
    </person>
    <person id="ped65" depart="88.28" type="ped_pedestrian">
        <personTrip from="172543837" to="-172517265#9" modes="public"/>
    </person>
    <person id="ped66" depart="89.64" type="ped_pedestrian">
        <personTrip from="739669519#1" to="739669582#1" modes="public"/>
    </person>
    <person id="ped67" depart="91.00" type="ped_pedestrian">
        <personTrip from="-241867305#0" to="488657707#3" modes="public"/>
    </person>
    <person id="ped68" depart="92.36" type="ped_pedestrian">
        <personTrip from="-174980401#0" to="738342119#1" modes="public"/>
    </person>
    <person id="ped69" depart="93.71" type="ped_pedestrian">
        <personTrip from="738342123#0" to="-568773043" modes="public"/>
    </person>
    <person id="ped70" depart="95.07" type="ped_pedestrian">
        <personTrip from="482049413#6" to="581641918#1" modes="public"/>
    </person>
    <person id="ped71" depart="96.43" type="ped_pedestrian">
        <personTrip from="142841686#0" to="739669514#1" modes="public"/>
    </person>
    <person id="ped72" depart="97.79" type="ped_pedestrian">
        <personTrip from="348759715" to="1113240356" modes="public"/>
    </person>
    <person id="ped73" depart="99.15" type="ped_pedestrian">
        <personTrip from="581641907#0" to="738342094#0" modes="public"/>
    </person>
    <person id="ped74" depart="100.51" type="ped_pedestrian">
        <personTrip from="1040199123" to="172575674#0" modes="public"/>
    </person>
    <person id="ped75" depart="101.86" type="ped_pedestrian">
        <personTrip from="968480163#1" to="738342025#0" modes="public"/>
    </person>
    <person id="ped76" depart="103.22" type="ped_pedestrian">
        <personTrip from="437623573" to="568772916#0" modes="public"/>
    </person>
    <person id="ped77" depart="104.58" type="ped_pedestrian">
        <personTrip from="-427635746#1" to="1179994247#0" modes="public"/>
    </person>
    <person id="ped78" depart="105.94" type="ped_pedestrian">
        <personTrip from="174979610#0" to="581642005#3" modes="public"/>
    </person>
    <person id="ped79" depart="107.30" type="ped_pedestrian">
        <personTrip from="1193768396#1" to="1151197766" modes="public"/>
    </person>
    <person id="ped80" depart="108.65" type="ped_pedestrian">
        <personTrip from="-174981006" to="686161893#2" modes="public"/>
    </person>
    <person id="ped81" depart="110.01" type="ped_pedestrian">
        <personTrip from="1193768396#0" to="739669543#0" modes="public"/>
    </person>
    <person id="ped82" depart="111.37" type="ped_pedestrian">
        <personTrip from="739669507#0" to="-174981006" modes="public"/>
    </person>
    <person id="ped83" depart="112.73" type="ped_pedestrian">
        <personTrip from="1193851321#2" to="738342044#1" modes="public"/>
    </person>
    <person id="ped84" depart="114.09" type="ped_pedestrian">
        <personTrip from="114942346#1" to="-577844862#2" modes="public"/>
    </person>
    <person id="ped85" depart="115.45" type="ped_pedestrian">
        <personTrip from="739669573#2" to="581641961" modes="public"/>
    </person>
    <person id="ped86" depart="116.80" type="ped_pedestrian">
        <personTrip from="482049413#2" to="738342135#3" modes="public"/>
    </person>
    <person id="ped87" depart="118.16" type="ped_pedestrian">
        <personTrip from="738342147#0" to="1040199106" modes="public"/>
    </person>
    <person id="ped88" depart="119.52" type="ped_pedestrian">
        <personTrip from="-242276849" to="37057409#9" modes="public"/>
    </person>
    <person id="ped89" depart="120.88" type="ped_pedestrian">
        <personTrip from="348759715" to="482049405#1" modes="public"/>
    </person>
    <person id="ped90" depart="122.24" type="ped_pedestrian">
        <personTrip from="738342093#1" to="738342051#1" modes="public"/>
    </person>
    <person id="ped91" depart="123.59" type="ped_pedestrian">
        <personTrip from="739669611#0" to="-278419754#0" modes="public"/>
    </person>
    <person id="ped92" depart="124.95" type="ped_pedestrian">
        <personTrip from="313459028#1" to="174979610#2" modes="public"/>
    </person>
    <person id="ped93" depart="126.31" type="ped_pedestrian">
        <personTrip from="739669508#1" to="1256612929#1" modes="public"/>
    </person>
    <person id="ped94" depart="127.67" type="ped_pedestrian">
        <personTrip from="1040199106" to="437627479#1" modes="public"/>
    </person>
    <person id="ped95" depart="129.03" type="ped_pedestrian">
        <personTrip from="338539032#1" to="147085016#0" modes="public"/>
    </person>
    <person id="ped96" depart="130.39" type="ped_pedestrian">
        <personTrip from="1256612930#1" to="739669565#0" modes="public"/>
    </person>
    <person id="ped97" depart="131.74" type="ped_pedestrian">
        <personTrip from="437627476#5" to="739669508#1" modes="public"/>
    </person>
    <person id="ped98" depart="133.10" type="ped_pedestrian">
        <personTrip from="581641918#1" to="-172513890#1" modes="public"/>
    </person>
    <person id="ped99" depart="134.46" type="ped_pedestrian">
        <personTrip from="968480166#0" to="738342167#1" modes="public"/>
    </person>
    <person id="ped100" depart="135.82" type="ped_pedestrian">
        <personTrip from="739669599#1" to="739669566#0" modes="public"/>
    </person>
    <person id="ped101" depart="137.18" type="ped_pedestrian">
        <personTrip from="739669499#0" to="-736669115#0" modes="public"/>
    </person>
    <person id="ped102" depart="138.53" type="ped_pedestrian">
        <personTrip from="488657707#2" to="114942346#0" modes="public"/>
    </person>
    <person id="ped103" depart="139.89" type="ped_pedestrian">
        <personTrip from="313459027#1" to="-172517269#0" modes="public"/>
    </person>
    <person id="ped104" depart="141.25" type="ped_pedestrian">
        <personTrip from="241974851#3" to="739669611#1" modes="public"/>
    </person>
    <person id="ped105" depart="142.61" type="ped_pedestrian">
        <personTrip from="142841686#0" to="738342135#2" modes="public"/>
    </person>
    <person id="ped106" depart="143.97" type="ped_pedestrian">
        <personTrip from="482049398#0" to="348759715" modes="public"/>
    </person>
    <person id="ped107" depart="145.33" type="ped_pedestrian">
        <personTrip from="739669591#0" to="968480163#2" modes="public"/>
    </person>
    <person id="ped108" depart="146.68" type="ped_pedestrian">
        <personTrip from="581641926" to="738342086#0" modes="public"/>
    </person>
    <person id="ped109" depart="148.04" type="ped_pedestrian">
        <personTrip from="-581641965#2" to="172517265#12" modes="public"/>
    </person>
    <person id="ped110" depart="149.40" type="ped_pedestrian">
        <personTrip from="739669599#1" to="581641991#0" modes="public"/>
    </person>
    <person id="ped111" depart="150.76" type="ped_pedestrian">
        <personTrip from="581641910" to="738342109#0" modes="public"/>
    </person>
    <person id="ped112" depart="152.12" type="ped_pedestrian">
        <personTrip from="-172517265#6" to="581641997#1" modes="public"/>
    </person>
    <person id="ped113" depart="153.47" type="ped_pedestrian">
        <personTrip from="54643636#2" to="739669502" modes="public"/>
    </person>
    <person id="ped114" depart="154.83" type="ped_pedestrian">
        <personTrip from="-581642004" to="739669593#1" modes="public"/>
    </person>
    <person id="ped115" depart="156.19" type="ped_pedestrian">
        <personTrip from="-175018554#3" to="101220223#0" modes="public"/>
    </person>
    <person id="ped116" depart="157.55" type="ped_pedestrian">
        <personTrip from="621949988#1" to="738342053#2" modes="public"/>
    </person>
    <person id="ped117" depart="158.91" type="ped_pedestrian">
        <personTrip from="1193851318" to="-41614879" modes="public"/>
    </person>
    <person id="ped118" depart="160.27" type="ped_pedestrian">
        <personTrip from="739669528#2" to="1256612928#2" modes="public"/>
    </person>
    <person id="ped119" depart="161.62" type="ped_pedestrian">
        <personTrip from="621949988#1" to="686161883#1" modes="public"/>
    </person>
    <person id="ped120" depart="162.98" type="ped_pedestrian">
        <personTrip from="32516784#5" to="581641996#1" modes="public"/>
    </person>
    <person id="ped121" depart="164.34" type="ped_pedestrian">
        <personTrip from="577844862#2" to="739669573#0" modes="public"/>
    </person>
    <person id="ped122" depart="165.70" type="ped_pedestrian">
        <personTrip from="1040199131#1" to="738342084#1" modes="public"/>
    </person>
    <person id="ped123" depart="167.06" type="ped_pedestrian">
        <personTrip from="1194061545#0" to="278423474#1" modes="public"/>
    </person>
    <person id="ped124" depart="168.41" type="ped_pedestrian">
        <personTrip from="738342049" to="172517265#9" modes="public"/>
    </person>
    <person id="ped125" depart="169.77" type="ped_pedestrian">
        <personTrip from="173823267#1" to="738342112#2" modes="public"/>
    </person>
    <person id="ped126" depart="171.13" type="ped_pedestrian">
        <personTrip from="-174981007#1" to="482049398#4" modes="public"/>
    </person>
    <person id="ped127" depart="172.49" type="ped_pedestrian">
        <personTrip from="968480165" to="968480163#3" modes="public"/>
    </person>
    <person id="ped128" depart="173.85" type="ped_pedestrian">
        <personTrip from="-174981007#2" to="1132756083" modes="public"/>
    </person>
    <person id="ped129" depart="175.21" type="ped_pedestrian">
        <personTrip from="142841686#0" to="739669571" modes="public"/>
    </person>
    <person id="ped130" depart="176.56" type="ped_pedestrian">
        <personTrip from="739669522#0" to="739669520#1" modes="public"/>
    </person>
    <person id="ped131" depart="177.92" type="ped_pedestrian">
        <personTrip from="241869417#1" to="-581642005#1" modes="public"/>
    </person>
    <person id="ped132" depart="179.28" type="ped_pedestrian">
        <personTrip from="738342165#1" to="738342077#0" modes="public"/>
    </person>
    <person id="ped133" depart="180.64" type="ped_pedestrian">
        <personTrip from="686161874#1" to="74795197#0" modes="public"/>
    </person>
    <person id="ped134" depart="182.00" type="ped_pedestrian">
        <personTrip from="738342026#5" to="-1057705020" modes="public"/>
    </person>
    <person id="ped135" depart="183.35" type="ped_pedestrian">
        <personTrip from="738342155#2" to="172517265#6" modes="public"/>
    </person>
    <person id="ped136" depart="184.71" type="ped_pedestrian">
        <personTrip from="738342039#0" to="739669576#1" modes="public"/>
    </person>
    <person id="ped137" depart="186.07" type="ped_pedestrian">
        <personTrip from="-581641890#1" to="-37057409#6" modes="public"/>
    </person>
    <person id="ped138" depart="187.43" type="ped_pedestrian">
        <personTrip from="-315269425#0" to="581641921#0" modes="public"/>
    </person>
    <person id="ped139" depart="188.79" type="ped_pedestrian">
        <personTrip from="145335919#2" to="686161869#2" modes="public"/>
    </person>
    <person id="ped140" depart="190.15" type="ped_pedestrian">
        <personTrip from="738342085#1" to="1040199131#0" modes="public"/>
    </person>
    <person id="ped141" depart="191.50" type="ped_pedestrian">
        <personTrip from="686161896#1" to="132564366#1" modes="public"/>
    </person>
    <person id="ped142" depart="192.86" type="ped_pedestrian">
        <personTrip from="488676847#1" to="739669543#0" modes="public"/>
    </person>
    <person id="ped143" depart="194.22" type="ped_pedestrian">
        <personTrip from="739669497#0" to="-241968243#0" modes="public"/>
    </person>
    <person id="ped144" depart="195.58" type="ped_pedestrian">
        <personTrip from="348759715" to="145335922#3" modes="public"/>
    </person>
    <person id="ped145" depart="196.94" type="ped_pedestrian">
        <personTrip from="-1040199112" to="738342127#0" modes="public"/>
    </person>
    <person id="ped146" depart="198.29" type="ped_pedestrian">
        <personTrip from="705960051" to="132564364#1" modes="public"/>
    </person>
    <person id="ped147" depart="199.65" type="ped_pedestrian">
        <personTrip from="738342103" to="581641919#0" modes="public"/>
    </person>
    <person id="ped148" depart="201.01" type="ped_pedestrian">
        <personTrip from="37057409#3" to="-109901549#0" modes="public"/>
    </person>
    <person id="ped149" depart="202.37" type="ped_pedestrian">
        <personTrip from="-175018553#1" to="739669523#1" modes="public"/>
    </person>
    <person id="ped150" depart="203.73" type="ped_pedestrian">
        <personTrip from="739669540" to="581641914#1" modes="public"/>
    </person>
    <person id="ped151" depart="205.09" type="ped_pedestrian">
        <personTrip from="738342166#1" to="581641996#0" modes="public"/>
    </person>
    <person id="ped152" depart="206.44" type="ped_pedestrian">
        <personTrip from="-581641930#3" to="-568772958#2" modes="public"/>
    </person>
    <person id="ped153" depart="207.80" type="ped_pedestrian">
        <personTrip from="172575623" to="739669535#3" modes="public"/>
    </person>
    <person id="ped154" depart="209.16" type="ped_pedestrian">
        <personTrip from="738342140#2" to="739669508#0" modes="public"/>
    </person>
    <person id="ped155" depart="210.52" type="ped_pedestrian">
        <personTrip from="739669535#3" to="109901549#0" modes="public"/>
    </person>
    <person id="ped156" depart="211.88" type="ped_pedestrian">
        <personTrip from="1256612930#1" to="-278420614#4" modes="public"/>
    </person>
    <person id="ped157" depart="213.23" type="ped_pedestrian">
        <personTrip from="738342132#0" to="739669524#1" modes="public"/>
    </person>
    <person id="ped158" depart="214.59" type="ped_pedestrian">
        <personTrip from="313459028#7" to="686161884#1" modes="public"/>
    </person>
    <person id="ped159" depart="215.95" type="ped_pedestrian">
        <personTrip from="-581641965#1" to="739669568#1" modes="public"/>
    </person>
    <person id="ped160" depart="217.31" type="ped_pedestrian">
        <personTrip from="739669509" to="739669604#1" modes="public"/>
    </person>
    <person id="ped161" depart="218.67" type="ped_pedestrian">
        <personTrip from="738342150#0" to="739669522#1" modes="public"/>
    </person>
    <person id="ped162" depart="220.03" type="ped_pedestrian">
        <personTrip from="-1211532835" to="738342099#0" modes="public"/>
    </person>
    <person id="ped163" depart="221.38" type="ped_pedestrian">
        <personTrip from="174970822#1" to="739669569#1" modes="public"/>
    </person>
    <person id="ped164" depart="222.74" type="ped_pedestrian">
        <personTrip from="738342144#0" to="739669508#5" modes="public"/>
    </person>
    <person id="ped165" depart="224.10" type="ped_pedestrian">
        <personTrip from="738342150#0" to="143732681" modes="public"/>
    </person>
    <person id="ped166" depart="225.46" type="ped_pedestrian">
        <personTrip from="738342136#2" to="-315269431" modes="public"/>
    </person>
    <person id="ped167" depart="226.82" type="ped_pedestrian">
        <personTrip from="739669514#1" to="739669506#1" modes="public"/>
    </person>
    <person id="ped168" depart="228.17" type="ped_pedestrian">
        <personTrip from="1179994246#0" to="738342155#2" modes="public"/>
    </person>
    <person id="ped169" depart="229.53" type="ped_pedestrian">
        <personTrip from="482049399#0" to="172526824#0" modes="public"/>
    </person>
    <person id="ped170" depart="230.89" type="ped_pedestrian">
        <personTrip from="738342140#1" to="1179994251" modes="public"/>
    </person>
    <person id="ped171" depart="232.25" type="ped_pedestrian">
        <personTrip from="-1194061545#1" to="1040199110" modes="public"/>
    </person>
    <person id="ped172" depart="233.61" type="ped_pedestrian">
        <personTrip from="173869874" to="739669508#5" modes="public"/>
    </person>
    <person id="ped173" depart="234.97" type="ped_pedestrian">
        <personTrip from="739669597" to="147085016#1" modes="public"/>
    </person>
    <person id="ped174" depart="236.32" type="ped_pedestrian">
        <personTrip from="736669115#2" to="280221384" modes="public"/>
    </person>
    <person id="ped175" depart="237.68" type="ped_pedestrian">
        <personTrip from="739669607" to="581641902#1" modes="public"/>
    </person>
    <person id="ped176" depart="239.04" type="ped_pedestrian">
        <personTrip from="739669576#1" to="-37057409#4" modes="public"/>
    </person>
    <person id="ped177" depart="240.40" type="ped_pedestrian">
        <personTrip from="739669599#3" to="-739669588" modes="public"/>
    </person>
    <person id="ped178" depart="241.76" type="ped_pedestrian">
        <personTrip from="739669594#1" to="142841686#0" modes="public"/>
    </person>
    <person id="ped179" depart="243.11" type="ped_pedestrian">
        <personTrip from="-315269431" to="41558495#1" modes="public"/>
    </person>
    <person id="ped180" depart="244.47" type="ped_pedestrian">
        <personTrip from="738342093#1" to="172575703#1" modes="public"/>
    </person>
    <person id="ped181" depart="245.83" type="ped_pedestrian">
        <personTrip from="686161870#1" to="54750112#4" modes="public"/>
    </person>
    <person id="ped182" depart="247.19" type="ped_pedestrian">
        <personTrip from="278419754#1" to="581641989#1" modes="public"/>
    </person>
    <person id="ped183" depart="248.55" type="ped_pedestrian">
        <personTrip from="1300523647#1" to="738342079#1" modes="public"/>
    </person>
    <person id="ped184" depart="249.91" type="ped_pedestrian">
        <personTrip from="-1028294724#0" to="739669565#4" modes="public"/>
    </person>
    <person id="ped185" depart="251.26" type="ped_pedestrian">
        <personTrip from="581641903#2" to="738342087#0" modes="public"/>
    </person>
    <person id="ped186" depart="252.62" type="ped_pedestrian">
        <personTrip from="738342104" to="738342048" modes="public"/>
    </person>
    <person id="ped187" depart="253.98" type="ped_pedestrian">
        <personTrip from="176341195#1" to="-174980401#1" modes="public"/>
    </person>
    <person id="ped188" depart="255.34" type="ped_pedestrian">
        <personTrip from="738342039#1" to="174967986#1" modes="public"/>
    </person>
    <person id="ped189" depart="256.70" type="ped_pedestrian">
        <personTrip from="172575703#1" to="739669498#1" modes="public"/>
    </person>
    <person id="ped190" depart="258.05" type="ped_pedestrian">