<?xml version="1.0" encoding="UTF-8"?>

<!-- generated on 2025-05-07 20:54:13.344328 by osmWebWizard.py v1_22_0+0002-63e50f52594
<configuration>
    <net-file value="E:\SUMO\tools\2025-05-07-20-53-58\osm.net.xml.gz"/>
    <output-trip-file value="E:\SUMO\tools\2025-05-07-20-53-58\osm.passenger.trips.xml"/>
    <route-file value="E:\SUMO\tools\2025-05-07-20-53-58\osm.passenger.rou.xml"/>
    <prefix value="veh"/>
    <trip-attributes value="departLane=&quot;best&quot;"/>
    <fringe-start-attributes value="departSpeed=&quot;max&quot;"/>
    <vehicle-class value="passenger"/>
    <lanes value="True"/>
    <fringe-factor value="5"/>
    <allow-fringe.min-length value="1000.0"/>
    <via-edge-types value="highway.motorway,highway.motorway_link,highway.trunk_link,highway.primary_link,highway.secondary_link,highway.tertiary_link"/>
    <min-distance value="300.0"/>
    <min-distance.fringe value="10.0"/>
    <remove-loops value="True"/>
    <validate value="True"/>
    <end value="600.0"/>
    <insertion-density value="150.0"/>
</configuration>
-->

<!-- generated on 2025-05-07 20:54:13 by Eclipse SUMO duarouter Version 1.22.0
<duarouterConfiguration xmlns:xsi="http://www.w3.org/2001/XMLSchema-instance" xsi:noNamespaceSchemaLocation="http://sumo.dlr.de/xsd/duarouterConfiguration.xsd">

    <input>
        <net-file value="E:\SUMO\tools\2025-05-07-20-53-58\osm.net.xml.gz"/>
        <route-files value="E:\SUMO\tools\2025-05-07-20-53-58\osm.passenger.trips.xml"/>
    </input>

    <output>
        <output-file value="E:\SUMO\tools\2025-05-07-20-53-58\osm.passenger.trips.xml.tmp"/>
        <alternatives-output value="NUL"/>
        <write-trips value="true"/>
    </output>

    <processing>
        <remove-loops value="true"/>
    </processing>

    <time>
        <begin value="0.0"/>
        <end value="600.0"/>
    </time>

    <report>
        <no-warnings value="true"/>
        <ignore-errors value="true"/>
        <no-step-log value="true"/>
    </report>

</duarouterConfiguration>
-->

<routes xmlns:xsi="http://www.w3.org/2001/XMLSchema-instance" xsi:noNamespaceSchemaLocation="http://sumo.dlr.de/xsd/routes_file.xsd">
    <vType id="veh_passenger" vClass="passenger"/>
    <trip id="veh0" type="veh_passenger" depart="0.00" departLane="best" from="174977895#8" to="-114942386#1"/>
    <trip id="veh1" type="veh_passenger" depart="0.59" departLane="best" departSpeed="max" from="-278420612#2" to="-175324818#0"/>
    <trip id="veh2" type="veh_passenger" depart="1.17" departLane="best" from="279740159#0" to="175018555#9"/>
    <trip id="veh4" type="veh_passenger" depart="2.35" departLane="best" from="-174981007#3" to="172517265#2"/>
    <trip id="veh6" type="veh_passenger" depart="3.52" departLane="best" from="32702484#3" to="278420612#0"/>
    <trip id="veh7" type="veh_passenger" depart="4.10" departLane="best" from="32673189#1" to="175555221#7"/>
    <trip id="veh9" type="veh_passenger" depart="5.28" departLane="best" from="376508066#0" to="174968832"/>
    <trip id="veh10" type="veh_passenger" depart="5.86" departLane="best" from="32673189#2" to="278421872#4"/>
    <trip id="veh11" type="veh_passenger" depart="6.45" departLane="best" from="-68251746#2" to="-172575658#0"/>
    <trip id="veh12" type="veh_passenger" depart="7.04" departLane="best" departSpeed="max" from="37057405#0" to="174975374#4"/>
    <trip id="veh13" type="veh_passenger" depart="7.62" departLane="best" departSpeed="max" from="38846080" to="173821295#3"/>
    <trip id="veh14" type="veh_passenger" depart="8.21" departLane="best" departSpeed="max" from="175324818#0" to="-172513887#2"/>
    <trip id="veh15" type="veh_passenger" depart="8.80" departLane="best" from="-175018553#4" to="-37056909"/>
    <trip id="veh16" type="veh_passenger" depart="9.38" departLane="best" from="-172513887#1" to="-175556459#0"/>
    <trip id="veh17" type="veh_passenger" depart="9.97" departLane="best" from="174977895#0" to="80340418#3"/>
    <trip id="veh18" type="veh_passenger" depart="10.55" departLane="best" from="-605289145#1" to="-175018555#5"/>
    <trip id="veh19" type="veh_passenger" depart="11.14" departLane="best" from="-175556459#0" to="605289145#4"/>
    <trip id="veh20" type="veh_passenger" depart="11.73" departLane="best" from="174980401#1" to="174974216#1"/>
    <trip id="veh21" type="veh_passenger" depart="12.31" departLane="best" departSpeed="max" from="-172591073#1" to="1063702354"/>
    <trip id="veh22" type="veh_passenger" depart="12.90" departLane="best" from="-172543836#1" to="175018561#0"/>
    <trip id="veh23" type="veh_passenger" depart="13.49" departLane="best" departSpeed="max" from="37057405#0" to="313459026#3"/>
    <trip id="veh24" type="veh_passenger" depart="14.07" departLane="best" from="-175018553#5" to="-1232002724#0"/>
    <trip id="veh25" type="veh_passenger" depart="14.66" departLane="best" departSpeed="max" from="41955378" to="-581641856#0"/>
    <trip id="veh26" type="veh_passenger" depart="15.24" departLane="best" departSpeed="max" from="-175556040#2" to="-278421874#0"/>
    <trip id="veh27" type="veh_passenger" depart="15.83" departLane="best" from="172543836#3" to="-279740160#2"/>
    <trip id="veh28" type="veh_passenger" depart="16.42" departLane="best" from="-80340409#1" to="-175018561#0"/>
    <trip id="veh29" type="veh_passenger" depart="17.00" departLane="best" from="-80340418#2" to="-172517265#3"/>
    <trip id="veh30" type="veh_passenger" depart="17.59" departLane="best" from="-172517263#0" to="172513887#5"/>
    <trip id="veh31" type="veh_passenger" depart="18.18" departLane="best" from="172517265#2" to="174979605#1"/>
    <trip id="veh32" type="veh_passenger" depart="18.76" departLane="best" departSpeed="max" from="32516780#0" to="1203771483#2"/>
    <trip id="veh33" type="veh_passenger" depart="19.35" departLane="best" departSpeed="max" from="-1334853101#1" to="1063702354"/>
    <trip id="veh35" type="veh_passenger" depart="20.52" departLane="best" from="705960053" to="38846172"/>
    <trip id="veh37" type="veh_passenger" depart="21.69" departLane="best" from="-175556459#0" to="174980401#1"/>
    <trip id="veh38" type="veh_passenger" depart="22.28" departLane="best" from="172517265#2" to="1334853101#1"/>
    <trip id="veh39" type="veh_passenger" depart="22.87" departLane="best" from="114942346#1" to="686161875#0"/>
    <trip id="veh40" type="veh_passenger" depart="23.45" departLane="best" departSpeed="max" from="41955378" to="280221384"/>
    <trip id="veh41" type="veh_passenger" depart="24.04" departLane="best" from="172513879#1" to="-174981007#3"/>
    <trip id="veh43" type="veh_passenger" depart="25.21" departLane="best" from="-279740160#2" to="174980401#1"/>
    <trip id="veh46" type="veh_passenger" depart="26.97" departLane="best" from="-1028294724#0" to="-605289145#5"/>
    <trip id="veh47" type="veh_passenger" depart="27.56" departLane="best" from="-114942346#1" to="581641876#1"/>
    <trip id="veh48" type="veh_passenger" depart="28.14" departLane="best" departSpeed="max" from="313459027#1" to="-172517264#1"/>
    <trip id="veh49" type="veh_passenger" depart="28.73" departLane="best" departSpeed="max" from="41955378" to="68251742#1"/>
    <trip id="veh50" type="veh_passenger" depart="29.32" departLane="best" from="-172513887#5" to="172517263#0"/>
    <trip id="veh51" type="veh_passenger" depart="29.90" departLane="best" departSpeed="max" from="-172136783#1" to="280221383#2"/>
    <trip id="veh52" type="veh_passenger" depart="30.49" departLane="best" from="306121243#3" to="173821295#4"/>
    <trip id="veh53" type="veh_passenger" depart="31.08" departLane="best" departSpeed="max" from="1305252028" to="172543836#3"/>
    <trip id="veh55" type="veh_passenger" depart="32.25" departLane="best" departSpeed="max" from="-80340418#4" to="175018555#9"/>
    <trip id="veh56" type="veh_passenger" depart="32.84" departLane="best" from="172517265#6" to="-278421872#4"/>
    <trip id="veh58" type="veh_passenger" depart="34.01" departLane="best" from="-80340418#1" to="174981007#1"/>
    <trip id="veh59" type="veh_passenger" depart="34.59" departLane="best" from="1063702354" to="172517267#1"/>
    <trip id="veh60" type="veh_passenger" depart="35.18" departLane="best" from="-172517265#9" to="-175324818#0"/>
    <trip id="veh61" type="veh_passenger" depart="35.77" departLane="best" from="376508066#0" to="174966998#1"/>
    <trip id="veh62" type="veh_passenger" depart="36.35" departLane="best" from="175018553#5" to="-175324818#0"/>
    <trip id="veh63" type="veh_passenger" depart="36.94" departLane="best" from="-175018553#5" to="581641876#1"/>
    <trip id="veh64" type="veh_passenger" depart="37.53" departLane="best" departSpeed="max" from="38846080" to="-172517265#15"/>
    <trip id="veh65" type="veh_passenger" depart="38.11" departLane="best" from="-175018555#5" to="175018553#6"/>
    <trip id="veh66" type="veh_passenger" depart="38.70" departLane="best" from="-174981007#1" to="-173829548#0"/>
    <trip id="veh67" type="veh_passenger" depart="39.28" departLane="best" from="581641879#0" to="172591073#1"/>
    <trip id="veh68" type="veh_passenger" depart="39.87" departLane="best" departSpeed="max" from="1305252028" to="32516780#5"/>
    <trip id="veh69" type="veh_passenger" depart="40.46" departLane="best" from="32673189#2" to="-175018553#0"/>
    <trip id="veh70" type="veh_passenger" depart="41.04" departLane="best" from="172517265#0" to="-1232002724#1"/>
    <trip id="veh71" type="veh_passenger" depart="41.63" departLane="best" departSpeed="max" from="-80340418#4" to="172428400#1"/>
    <trip id="veh72" type="veh_passenger" depart="42.22" departLane="best" from="278421872#1" to="175018555#4"/>
    <trip id="veh73" type="veh_passenger" depart="42.80" departLane="best" from="774714142#1" to="172543836#1"/>
    <trip id="veh74" type="veh_passenger" depart="43.39" departLane="best" from="-80340409#2" to="705960055#3"/>
    <trip id="veh75" type="veh_passenger" depart="43.98" departLane="best" departSpeed="max" from="38846080" to="-278421885#1"/>
    <trip id="veh76" type="veh_passenger" depart="44.56" departLane="best" departSpeed="max" from="-80340418#4" to="-32516780#5"/>
    <trip id="veh77" type="veh_passenger" depart="45.15" departLane="best" from="175324818#2" to="581641966#1"/>
    <trip id="veh80" type="veh_passenger" depart="46.91" departLane="best" from="-697286740" to="581641966#1"/>
    <trip id="veh81" type="veh_passenger" depart="47.49" departLane="best" from="-376508066#0" to="174977895#8"/>
    <trip id="veh82" type="veh_passenger" depart="48.08" departLane="best" from="143734297#2" to="-175018558#2"/>
    <trip id="veh83" type="veh_passenger" depart="48.67" departLane="best" from="-68251746#3" to="80340418#2"/>
    <trip id="veh84" type="veh_passenger" depart="49.25" departLane="best" departSpeed="max" from="-175556040#2" to="-32516780#2"/>
    <trip id="veh85" type="veh_passenger" depart="49.84" departLane="best" from="-114942346#3" to="1203771483#2"/>
    <trip id="veh86" type="veh_passenger" depart="50.43" departLane="best" from="68251742#1" to="80340418#4"/>
    <trip id="veh87" type="veh_passenger" depart="51.01" departLane="best" from="-172543836#1" to="278420612#0"/>
    <trip id="veh88" type="veh_passenger" depart="51.60" departLane="best" from="-697286740" to="173821295#5"/>
    <trip id="veh89" type="veh_passenger" depart="52.18" departLane="best" from="-172517265#9" to="280221383#1"/>
    <trip id="veh90" type="veh_passenger" depart="52.77" departLane="best" departSpeed="max" from="-1334853101#1" to="174966998#1"/>
    <trip id="veh91" type="veh_passenger" depart="53.36" departLane="best" from="172513887#1" to="38846086"/>
    <trip id="veh92" type="veh_passenger" depart="53.94" departLane="best" from="-172577543#1" to="705960055#2"/>
    <trip id="veh93" type="veh_passenger" depart="54.53" departLane="best" from="-172513887#1" to="-175018553#0"/>
    <trip id="veh94" type="veh_passenger" depart="55.12" departLane="best" from="173829548#1" to="175018555#8"/>
    <trip id="veh95" type="veh_passenger" depart="55.70" departLane="best" from="-175018555#2" to="-172577543#0"/>
    <trip id="veh97" type="veh_passenger" depart="56.88" departLane="best" departSpeed="max" from="173829548#0" to="174975374#4"/>
    <trip id="veh98" type="veh_passenger" depart="57.46" departLane="best" departSpeed="max" from="-80340418#4" to="174966998#1"/>
    <trip id="veh99" type="veh_passenger" depart="58.05" departLane="best" from="172517265#1" to="605289145#1"/>
    <trip id="veh100" type="veh_passenger" depart="58.63" departLane="best" departSpeed="max" from="-174979605#1" to="143323394#1"/>
    <trip id="veh101" type="veh_passenger" depart="59.22" departLane="best" from="-175018555#8" to="114942346#1"/>
    <trip id="veh102" type="veh_passenger" depart="59.81" departLane="best" departSpeed="max" from="175018553#0" to="-376508066#2"/>
    <trip id="veh103" type="veh_passenger" depart="60.39" departLane="best" departSpeed="max" from="-32557950#6" to="280221383#2"/>
    <trip id="veh104" type="veh_passenger" depart="60.98" departLane="best" from="-172428400#0" to="172136783#1"/>
    <trip id="veh105" type="veh_passenger" depart="61.57" departLane="best" from="172428400#1" to="-175018558#1"/>
    <trip id="veh107" type="veh_passenger" depart="62.74" departLane="best" from="-581642002" to="-174974215#1"/>
    <trip id="veh108" type="veh_passenger" depart="63.32" departLane="best" departSpeed="max" from="37057405#0" to="175556040#2"/>
    <trip id="veh109" type="veh_passenger" depart="63.91" departLane="best" departSpeed="max" from="174970821#0" to="80340418#3"/>
    <trip id="veh110" type="veh_passenger" depart="64.50" departLane="best" departSpeed="max" from="37056909" to="-376508066#2"/>
    <trip id="veh111" type="veh_passenger" depart="65.08" departLane="best" departSpeed="max" from="175018553#0" to="605289145#6"/>
    <trip id="veh113" type="veh_passenger" depart="66.26" departLane="best" from="-172517265#15" to="-172575658#1"/>
    <trip id="veh114" type="veh_passenger" depart="66.84" departLane="best" from="-278420612#0" to="-174968833#1"/>
    <trip id="veh115" type="veh_passenger" depart="67.43" departLane="best" from="-175556459#2" to="-175018553#6"/>
    <trip id="veh116" type="veh_passenger" depart="68.02" departLane="best" from="174977891#1" to="280221384"/>
    <trip id="veh117" type="veh_passenger" depart="68.60" departLane="best" departSpeed="max" from="-80340418#4" to="-32516780#2"/>
    <trip id="veh119" type="veh_passenger" depart="69.77" departLane="best" from="279740160#1" to="172543836#3"/>
    <trip id="veh121" type="veh_passenger" depart="70.95" departLane="best" from="-172428400#3" to="581641867#0"/>
    <trip id="veh122" type="veh_passenger" depart="71.53" departLane="best" from="581641867#0" to="172543836#1"/>
    <trip id="veh123" type="veh_passenger" depart="72.12" departLane="best" departSpeed="max" from="37057405#0" to="174966998#0"/>
    <trip id="veh124" type="veh_passenger" depart="72.71" departLane="best" from="172575685#0" to="173821295#3"/>
    <trip id="veh125" type="veh_passenger" depart="73.29" departLane="best" from="581641865" to="175018555#8"/>
    <trip id="veh126" type="veh_passenger" depart="73.88" departLane="best" from="175324818#2" to="172543836#3"/>
    <trip id="veh127" type="veh_passenger" depart="74.47" departLane="best" from="313459027#1" to="581641867#0"/>
    <trip id="veh128" type="veh_passenger" depart="75.05" departLane="best" from="-80340418#1" to="174977891#1"/>
    <trip id="veh129" type="veh_passenger" depart="75.64" departLane="best" departSpeed="max" from="38846080" to="80340409#10"/>
    <trip id="veh130" type="veh_passenger" depart="76.22" departLane="best" from="-114942346#4" to="-279740159#0"/>
    <trip id="veh131" type="veh_passenger" depart="76.81" departLane="best" departSpeed="max" from="-35969188" to="581642010#0"/>
    <trip id="veh132" type="veh_passenger" depart="77.40" departLane="best" from="-32557950#3" to="41843572#1"/>
    <trip id="veh133" type="veh_passenger" depart="77.98" departLane="best" from="36516100" to="-32515027"/>
    <trip id="veh134" type="veh_passenger" depart="78.57" departLane="best" departSpeed="max" from="32515027" to="-172575638"/>
    <trip id="veh135" type="veh_passenger" depart="79.16" departLane="best" from="41843572#1" to="38846086"/>
    <trip id="veh136" type="veh_passenger" depart="79.74" departLane="best" from="-175018553#2" to="32702484#3"/>
    <trip id="veh137" type="veh_passenger" depart="80.33" departLane="best" from="114942386#0" to="41955520#5"/>
    <trip id="veh138" type="veh_passenger" depart="80.92" departLane="best" from="32673189#0" to="581641878#1"/>
    <trip id="veh139" type="veh_passenger" depart="81.50" departLane="best" from="686161875#1" to="32557950#1"/>
    <trip id="veh140" type="veh_passenger" depart="82.09" departLane="best" from="174979611#1" to="114942346#4"/>
    <trip id="veh142" type="veh_passenger" depart="83.26" departLane="best" from="581641873#0" to="-172575708#3"/>
    <trip id="veh143" type="veh_passenger" depart="83.85" departLane="best" from="172517265#15" to="1334853101#1"/>
    <trip id="veh144" type="veh_passenger" depart="84.43" departLane="best" from="278421872#1" to="-581641855"/>
    <trip id="veh145" type="veh_passenger" depart="85.02" departLane="best" departSpeed="max" from="174968833#0" to="172517265#6"/>
    <trip id="veh146" type="veh_passenger" depart="85.61" departLane="best" from="-705960055#1" to="173821295#2"/>
    <trip id="veh147" type="veh_passenger" depart="86.19" departLane="best" from="-175555221#6" to="175556040#2"/>
    <trip id="veh148" type="veh_passenger" depart="86.78" departLane="best" from="-1028294724#0" to="581641966#1"/>
    <trip id="veh149" type="veh_passenger" depart="87.36" departLane="best" from="172517265#6" to="278420612#1"/>
    <trip id="veh150" type="veh_passenger" depart="87.95" departLane="best" from="279740160#1" to="175018555#1"/>
    <trip id="veh151" type="veh_passenger" depart="88.54" departLane="best" departSpeed="max" from="-581641966#1" to="-172517265#15"/>
    <trip id="veh152" type="veh_passenger" depart="89.12" departLane="best" from="-32557950#3" to="38573226#0"/>
    <trip id="veh153" type="veh_passenger" depart="89.71" departLane="best" from="-24440305" to="-376508066#3"/>
    <trip id="veh154" type="veh_passenger" depart="90.30" departLane="best" from="32516780#2" to="114942346#5"/>
    <trip id="veh155" type="veh_passenger" depart="90.88" departLane="best" from="-80340409#2" to="-376508066#0"/>
    <trip id="veh157" type="veh_passenger" depart="92.06" departLane="best" from="581641883#1" to="175018558#1"/>
    <trip id="veh158" type="veh_passenger" depart="92.64" departLane="best" from="-279740160#2" to="172543836#2"/>
    <trip id="veh159" type="veh_passenger" depart="93.23" departLane="best" from="-1028294724#0" to="-32673189#2"/>
    <trip id="veh160" type="veh_passenger" depart="93.81" departLane="best" from="1057705018" to="173821295#5"/>
    <trip id="veh161" type="veh_passenger" depart="94.40" departLane="best" from="174981007#0" to="581642012#1"/>
    <trip id="veh162" type="veh_passenger" depart="94.99" departLane="best" departSpeed="max" from="1305252028" to="581641874#1"/>
    <trip id="veh163" type="veh_passenger" depart="95.57" departLane="best" from="32530429" to="-174981006"/>
    <trip id="veh164" type="veh_passenger" depart="96.16" departLane="best" departSpeed="max" from="37056909" to="280221383#2"/>
    <trip id="veh165" type="veh_passenger" depart="96.75" departLane="best" departSpeed="max" from="175018553#0" to="-175324818#0"/>
    <trip id="veh166" type="veh_passenger" depart="97.33" departLane="best" from="-174977895#2" to="-114942386#1"/>
    <trip id="veh167" type="veh_passenger" depart="97.92" departLane="best" from="-175018558#6" to="172513887#1"/>
    <trip id="veh168" type="veh_passenger" depart="98.51" departLane="best" from="-376508066#1" to="-172517265#2"/>
    <trip id="veh169" type="veh_passenger" depart="99.09" departLane="best" departSpeed="max" from="-80340418#4" to="174979605#1"/>
    <trip id="veh170" type="veh_passenger" depart="99.68" departLane="best" from="-174975368#1" to="175555221#7"/>
    <trip id="veh171" type="veh_passenger" depart="100.26" departLane="best" from="172428400#0" to="-278421872#4"/>
    <trip id="veh172" type="veh_passenger" depart="100.85" departLane="best" from="174981007#0" to="-114942235#2"/>
    <trip id="veh173" type="veh_passenger" depart="101.44" departLane="best" from="-280221384" to="313459026#1"/>
    <trip id="veh174" type="veh_passenger" depart="102.02" departLane="best" from="-172517265#15" to="1203771483#2"/>
    <trip id="veh175" type="veh_passenger" depart="102.61" departLane="best" departSpeed="max" from="-174966998#1" to="705960053"/>
    <trip id="veh176" type="veh_passenger" depart="103.20" departLane="best" from="172517265#0" to="172513887#8"/>
    <trip id="veh177" type="veh_passenger" depart="103.78" departLane="best" from="-114942346#3" to="32557950#6"/>
    <trip id="veh178" type="veh_passenger" depart="104.37" departLane="best" departSpeed="max" from="175018553#0" to="80340418#3"/>
    <trip id="veh179" type="veh_passenger" depart="104.96" departLane="best" from="173829548#1" to="68251746#1"/>
    <trip id="veh181" type="veh_passenger" depart="106.13" departLane="best" from="-24440305" to="172517265#2"/>
    <trip id="veh182" type="veh_passenger" depart="106.71" departLane="best" departSpeed="max" from="37057405#0" to="172543836#2"/>
    <trip id="veh183" type="veh_passenger" depart="107.30" departLane="best" from="581641856#0" to="279740160#1"/>
    <trip id="veh184" type="veh_passenger" depart="107.89" departLane="best" departSpeed="max" from="1305252028" to="-279740160#1"/>
    <trip id="veh185" type="veh_passenger" depart="108.47" departLane="best" from="-175018558#9" to="174980401#0"/>
    <trip id="veh186" type="veh_passenger" depart="109.06" departLane="best" from="306121243#3" to="-172521069#0"/>
    <trip id="veh187" type="veh_passenger" depart="109.65" departLane="best" from="174974218#1" to="-32516780#0"/>
    <trip id="veh188" type="veh_passenger" depart="110.23" departLane="best" from="-172428400#5" to="-32673189#1"/>
    <trip id="veh189" type="veh_passenger" depart="110.82" departLane="best" from="-278420612#0" to="-581641877#2"/>
    <trip id="veh190" type="veh_passenger" depart="111.40" departLane="best" from="172517265#6" to="174966998#0"/>
    <trip id="veh191" type="veh_passenger" depart="111.99" departLane="best" from="-175018553#6" to="175555221#7"/>
    <trip id="veh193" type="veh_passenger" depart="113.16" departLane="best" departSpeed="max" from="-80340418#4" to="175018555#2"/>
    <trip id="veh194" type="veh_passenger" depart="113.75" departLane="best" departSpeed="max" from="-80340418#4" to="581641876#1"/>
    <trip id="veh195" type="veh_passenger" depart="114.34" departLane="best" from="-172591072#1" to="175555221#7"/>
    <trip id="veh197" type="veh_passenger" depart="115.51" departLane="best" from="-68251746#4" to="-114942275#0"/>
    <trip id="veh198" type="veh_passenger" depart="116.10" departLane="best" from="376508066#3" to="68251746#4"/>
    <trip id="veh199" type="veh_passenger" depart="116.68" departLane="best" departSpeed="max" from="-80340418#4" to="280221383#1"/>
    <trip id="veh200" type="veh_passenger" depart="117.27" departLane="best" from="172517267#1" to="174968832"/>
    <trip id="veh201" type="veh_passenger" depart="117.85" departLane="best" from="-175018553#1" to="175018561#0"/>
    <trip id="veh202" type="veh_passenger" depart="118.44" departLane="best" from="1063702353" to="1203771491"/>
    <trip id="veh203" type="veh_passenger" depart="119.03" departLane="best" departSpeed="max" from="-35969188" to="175018558#2"/>
    <trip id="veh204" type="veh_passenger" depart="119.61" departLane="best" from="-1203771491" to="173821295#4"/>
    <trip id="veh205" type="veh_passenger" depart="120.20" departLane="best" from="174974215#2" to="1203771483#0"/>
    <trip id="veh206" type="veh_passenger" depart="120.79" departLane="best" from="-774714141#1" to="172577543#1"/>
    <trip id="veh207" type="veh_passenger" depart="121.37" departLane="best" departSpeed="max" from="-114942346#5" to="174980401#2"/>
    <trip id="veh209" type="veh_passenger" depart="122.55" departLane="best" from="-1203771491" to="1063702353"/>
    <trip id="veh210" type="veh_passenger" depart="123.13" departLane="best" from="-174981007#0" to="-605289145#7"/>
    <trip id="veh211" type="veh_passenger" depart="123.72" departLane="best" departSpeed="max" from="306121243#0" to="1063702353"/>
    <trip id="veh212" type="veh_passenger" depart="124.30" departLane="best" departSpeed="max" from="306121243#0" to="36516164"/>
    <trip id="veh213" type="veh_passenger" depart="124.89" departLane="best" from="-175555221#4" to="-172517265#6"/>
    <trip id="veh215" type="veh_passenger" depart="126.06" departLane="best" from="-80340418#3" to="-774714142#1"/>
    <trip id="veh216" type="veh_passenger" depart="126.65" departLane="best" from="174980401#2" to="313459029#0"/>
    <trip id="veh217" type="veh_passenger" depart="127.24" departLane="best" from="174980401#2" to="280221383#2"/>
    <trip id="veh218" type="veh_passenger" depart="127.82" departLane="best" from="605289145#5" to="-175018553#4"/>
    <trip id="veh219" type="veh_passenger" depart="128.41" departLane="best" from="-114942346#1" to="-174970823#0"/>
    <trip id="veh221" type="veh_passenger" depart="129.58" departLane="best" departSpeed="max" from="172575638" to="-175018558#9"/>
    <trip id="veh223" type="veh_passenger" depart="130.75" departLane="best" from="-173821295#3" to="-174974215#2"/>
    <trip id="veh225" type="veh_passenger" depart="131.93" departLane="best" departSpeed="max" from="37056909" to="705960055#5"/>
    <trip id="veh226" type="veh_passenger" depart="132.51" departLane="best" from="-172517265#15" to="-114942386#1"/>
    <trip id="veh227" type="veh_passenger" depart="133.10" departLane="best" from="-32557950#1" to="-175018558#1"/>
    <trip id="veh228" type="veh_passenger" depart="133.69" departLane="best" from="68251742#1" to="114942346#1"/>
    <trip id="veh229" type="veh_passenger" depart="134.27" departLane="best" from="-175555221#5" to="-172517265#3"/>
    <trip id="veh230" type="veh_passenger" depart="134.86" departLane="best" from="175018555#2" to="174979605#1"/>
    <trip id="veh231" type="veh_passenger" depart="135.45" departLane="best" from="172517265#1" to="313459026#2"/>
    <trip id="veh232" type="veh_passenger" depart="136.03" departLane="best" from="376508066#1" to="174967989"/>
    <trip id="veh233" type="veh_passenger" depart="136.62" departLane="best" from="-172517265#9" to="80340418#1"/>
    <trip id="veh234" type="veh_passenger" depart="137.20" departLane="best" departSpeed="max" from="32515027" to="-774714141#3"/>
    <trip id="veh235" type="veh_passenger" depart="137.79" departLane="best" from="172513887#5" to="-705960055#5"/>
    <trip id="veh236" type="veh_passenger" depart="138.38" departLane="best" from="376508066#1" to="35876587"/>
    <trip id="veh237" type="veh_passenger" depart="138.96" departLane="best" from="-172517265#12" to="705960055#2"/>
    <trip id="veh238" type="veh_passenger" depart="139.55" departLane="best" from="-174977895#0" to="36516100"/>
    <trip id="veh239" type="veh_passenger" depart="140.14" departLane="best" departSpeed="max" from="175324818#0" to="1334853101#1"/>
    <trip id="veh240" type="veh_passenger" depart="140.72" departLane="best" from="278421885#1" to="-774714140#1"/>
    <trip id="veh241" type="veh_passenger" depart="141.31" departLane="best" from="-24440305" to="32659378#1"/>
    <trip id="veh242" type="veh_passenger" depart="141.89" departLane="best" from="1063702353" to="278421874#0"/>
    <trip id="veh243" type="veh_passenger" depart="142.48" departLane="best" from="-24440305" to="38846086"/>
    <trip id="veh244" type="veh_passenger" depart="143.07" departLane="best" departSpeed="max" from="37057405#0" to="-172517267#1"/>
    <trip id="veh245" type="veh_passenger" depart="143.65" departLane="best" departSpeed="max" from="41955378" to="278421872#4"/>
    <trip id="veh246" type="veh_passenger" depart="144.24" departLane="best" from="-1203771483#0" to="174974218#0"/>
    <trip id="veh247" type="veh_passenger" depart="144.83" departLane="best" from="-68251746#3" to="1203771491"/>
    <trip id="veh248" type="veh_passenger" depart="145.41" departLane="best" from="376508066#1" to="-175018553#0"/>
    <trip id="veh249" type="veh_passenger" depart="146.00" departLane="best" from="174981007#0" to="32557950#3"/>
    <trip id="veh250" type="veh_passenger" depart="146.59" departLane="best" from="175018558#9" to="-32516780#0"/>
    <trip id="veh251" type="veh_passenger" depart="147.17" departLane="best" from="-172513887#5" to="278420612#1"/>
    <trip id="veh252" type="veh_passenger" depart="147.76" departLane="best" from="581641881#0" to="280221383#2"/>
    <trip id="veh253" type="veh_passenger" depart="148.34" departLane="best" from="175018555#2" to="174981006"/>
    <trip id="veh254" type="veh_passenger" depart="148.93" departLane="best" from="172136766" to="32530429"/>
    <trip id="veh255" type="veh_passenger" depart="149.52" departLane="best" from="-172517263#1" to="-175324818#0"/>
    <trip id="veh256" type="veh_passenger" depart="150.10" departLane="best" from="175018555#4" to="-41960374#0"/>
    <trip id="veh257" type="veh_passenger" depart="150.69" departLane="best" from="172517265#2" to="1203771483#2"/>
    <trip id="veh258" type="veh_passenger" depart="151.28" departLane="best" from="-279740160#2" to="-68251746#3"/>