<?xml version="1.0" encoding="UTF-8"?>

<!-- generated on 2025-05-07 20:54:14.207536 by osmWebWizard.py v1_22_0+0002-63e50f52594
<configuration>
    <net-file value="E:\SUMO\tools\2025-05-07-20-53-58\osm.net.xml.gz"/>
    <additional-files value="E:\SUMO\tools\2025-05-07-20-53-58\osm_stops.add.xml,E:\SUMO\tools\2025-05-07-20-53-58\osm_pt.rou.xml"/>
    <output-trip-file value="E:\SUMO\tools\2025-05-07-20-53-58\osm.pedestrian.trips.xml"/>
    <route-file value="E:\SUMO\tools\2025-05-07-20-53-58\osm.pedestrian.rou.xml"/>
    <persontrips value="True"/>
    <persontrip.walk-opposite-factor value="0.8"/>
    <prefix value="ped"/>
    <trip-attributes value="modes=&quot;public&quot;"/>
    <vehicle-class value="pedestrian"/>
    <fringe-factor value="1"/>
    <end value="600.0"/>
    <insertion-density value="50.0"/>
    <duarouter-weights.tls-penalty value="20"/>
</configuration>
-->

<!-- generated on 2025-05-07 20:54:13 by Eclipse SUMO duarouter Version 1.22.0
<duarouterConfiguration xmlns:xsi="http://www.w3.org/2001/XMLSchema-instance" xsi:noNamespaceSchemaLocation="http://sumo.dlr.de/xsd/duarouterConfiguration.xsd">

    <input>
        <net-file value="E:\SUMO\tools\2025-05-07-20-53-58\osm.net.xml.gz"/>
        <additional-files value="E:\SUMO\tools\2025-05-07-20-53-58\osm_stops.add.xml,E:\SUMO\tools\2025-05-07-20-53-58\osm_pt.rou.xml"/>
        <route-files value="E:\SUMO\tools\2025-05-07-20-53-58\osm.pedestrian.trips.xml"/>
    </input>

    <output>
        <output-file value="E:\SUMO\tools\2025-05-07-20-53-58\osm.pedestrian.rou.xml"/>
        <alternatives-output value="NUL"/>
    </output>

    <processing>
        <weights.tls-penalty value="20"/>
        <persontrip.walk-opposite-factor value="0.8"/>
    </processing>

    <time>
        <begin value="0.0"/>
        <end value="600.0"/>
    </time>

    <report>
        <no-warnings value="true"/>
        <ignore-errors value="true"/>
        <no-step-log value="true"/>
    </report>

</duarouterConfiguration>
-->

<routes xmlns:xsi="http://www.w3.org/2001/XMLSchema-instance" xsi:noNamespaceSchemaLocation="http://sumo.dlr.de/xsd/routes_file.xsd">
    <vType id="ped_pedestrian" vClass="pedestrian"/>
    <person id="ped1" type="ped_pedestrian" depart="1.36">
        <walk edges="145335922#1 482049413#5 1179994250#0 1179994250#1 1179994246#2 1179994246#1"/>
    </person>
    <person id="ped2" type="ped_pedestrian" depart="2.72">
        <walk edges="738342098#1 738342102 738342095#0 172517265#12 738342123#1 738342131#1 738342128#1 738342054#1"/>
    </person>
    <person id="ped3" type="ped_pedestrian" depart="4.07">
        <walk edges="739669529#2 739669529#1 739669529#0 739669524#1 739669523#0 174977892#0 174977892#1 739669522#1 739669517#1 739669522#0 739669515#0 739669510#1 739669506#1 739669506#0 739669505#1 -774714141#1 -774714141#3 -174981006 -174981007#0 -174981007#1 -174981007#2 -174981007#3 1300523645#1 -172575635#4 -172575635#3 -172575635#2 -621949988#1 241968444 -241974851#0 -621811062#1 -621811062#0 -241869417#2 -241971122 -241869417#0"/>
    </person>
    <person id="ped6" type="ped_pedestrian" depart="8.15">
        <walk edges="-1300523646 1300523645#0 -174981007#3 -174981007#2 -174981007#1 174981007#0 -114942346#0 -114942346#1 175018554#5 278419758#0 -581641965#0 1119870218 -37057409#6 -37057409#4 -37057409#3 1040199120 1040199119#1"/>
    </person>
    <person id="ped7" type="ped_pedestrian" depart="9.51">
        <walk edges="738342025#0 739669558 174970822#1 313459028#2 38422715#1 581641916#2 581641914#0"/>
    </person>
    <person id="ped9" type="ped_pedestrian" depart="12.22">
        <walk edges="738342149#0 738342152#0 738342152#1 739669538 738342166#0 -279740160#2 279740160#1 738342158#0 -278419756#0 -581641964 -581641965#2 -581641965#1 1119870218 -37057409#6 -37057409#4 -37057409#3 1040199120 1040199119#0 -1040199118"/>
    </person>
    <person id="ped10" type="ped_pedestrian" depart="13.58">
        <walk edges="738342145#1 738342146#1 739669528#2 739669528#1 739669528#0 739669523#1 739669524#0 739669526#1 739669526#0 686161877#1 686161877#0 739669610#1 739669610#0 738342119#1 738342119#0 739669607 738342098#0 738342098#1 738342103 738342092#1 738342092#2 738342070#1"/>
    </person>
    <person id="ped11" type="ped_pedestrian" depart="14.94">
        <walk edges="174979610#4 174979609 32516784#5 32516784#6 32516784#7 738342135#0 738342135#1 738342135#2 738342135#3 172517269#0 738342137#1 686161869#2 109867986#1 686161872#0 738342138#1 738342138#3 738342138#4 738342138#5 738342138#6 739669521 739669517#1 -172517265#3 -172517265#2 -172517265#1 -172517265#0 -279740160#2 -279740160#1 738342160#0 176341541#0 348759716 -581641991#1 -581641991#0"/>
    </person>
    <person id="ped12" type="ped_pedestrian" depart="16.30">
        <walk edges="739669589#2 739669589#1 739669589#0 739669571 739669569#0 739669568#0 739669565#1 1151197765#1 1151197765#2 -1151197765#2" busStop="10815857717"/> <!-- Henrik Wergelands gate -->
        <walk edges="739669598 313459028#1 313459028#2 313459028#3 54750112#9 54750112#8 54750112#7 313459028#7 313459028#8 173828939#0 173828939#1 173828939#2 738342095#1 738342097#1 738342101#0 738342101#1 738342104 738342108#1 738342107#1 738342111 32516784#1 581641940#0 174979607#1"/>
    </person>
    <person id="ped13" type="ped_pedestrian" depart="17.66">
        <walk edges="-241968243#1 -242274290"/>
    </person>
    <person id="ped14" type="ped_pedestrian" depart="19.01">
        <walk edges="739669498#0 739669499#0 739669499#1 738342162#2 738342163#0 738342166#0 739669538 739669527#1 739669523#0 739669524#1 739669529#0 739669529#1 739669531#0 739669531#1 738342140#4 686161869#0"/>
    </person>
    <person id="ped15" type="ped_pedestrian" depart="20.37">
        <walk edges="738342146#1 739669528#2 739669528#1 739669528#0 739669523#1 739669524#0 739669526#1 739669526#0 686161877#1 686161877#0 739669610#1 739669610#0 738342119#1 172513887#2 172513887#1 -172517265#12 738342094#0 738342093#2"/>
    </person>
    <person id="ped16" type="ped_pedestrian" depart="21.73">
        <walk edges="581641902#1 290754256 739669571 739669569#0 739669568#1 739669595#1 739669591#1 739669593#0 739669596#1 739669602#0"/>
    </person>
    <person id="ped17" type="ped_pedestrian" depart="23.09">
        <walk edges="241974851#2 241968444 621949988#1 172575635#2 172575635#3 172575635#4 437623575#0 437623575#1 581641994#1" busStop="6372559487"/> <!-- Kristian IVs gate -->
        <walk edges="739669574#0 739669574#1 488657707#3 581641919#0 581641919#1"/>
    </person>
    <person id="ped18" type="ped_pedestrian" depart="24.45">
        <walk edges="738342162#5 738342162#4 738342162#3 739669500#0 739669500#1 739669508#0 739669507#1 739669507#0 739669510#0 686161885#1 -174974218#0 686161883#0"/>
    </person>
    <person id="ped19" type="ped_pedestrian" depart="25.81">
        <walk edges="739669508#1 739669515#1 739669517#1 739669521 738342138#6 -738342138#5 -738342138#4 -738342138#3 -738342138#1 686161872#0 109867986#1 686161869#2 738342137#1 -172517269#0 738342135#3 738342135#2 738342135#1 738342135#0 32516784#7 32516784#6 32516784#5 32516784#4 32516784#3 32516784#2 32516784#1 32516784#0 54640130#3 54640130#2 581641989#2"/>
    </person>
    <person id="ped20" type="ped_pedestrian" depart="27.16">
        <walk edges="738342078#0 738342078#1 738342078#2 738342078#3 738342078#4 738342074#2 738342074#1 738342088 738342089#1 738342092#1 738342103 738342098#1 738342098#0 739669607 738342119#0 -172513887#2 -172513887#1"/>
    </person>
    <person id="ped21" type="ped_pedestrian" depart="28.52">
        <walk edges="1179994251 738342026#8 738342033#1 738342034#1 738342035#0 739669545#1 739669556 738342058#2 738342063#2 738342068#0 738342068#1 738342069#1 738342073#0 738342073#1 738342074#1 738342074#2 738342078#4 738342078#3 738342078#2 738342081#1 80340418#1 80340418#2 80340418#3 80340418#4 -80340418#4 1193851314 1193851313 1193851312 172513889#0"/>
    </person>
    <person id="ped22" type="ped_pedestrian" depart="29.88">
        <walk edges="-175018554#1 175018554#3 175018554#4 114942346#1 -175018553#5 -175018553#6 739669497#1 739669493#1 739669493#0 739669492#1 739669499#0 739669499#1 738342162#2 738342163#0 738342166#0 739669538 739669527#1 739669523#0 739669524#1 739669529#0 739669529#1 739669531#0 739669531#1 738342140#4 54643637#1 54643637#0 1193786324"/>
    </person>
    <person id="ped23" type="ped_pedestrian" depart="31.24">
        <walk edges="-278420614#0 176341541#0 348759716 1374271746#1 348759715 172521064#0 172521064#1 175018563#0 -114942346#5 -114942346#4 -114942346#3 -114942346#1 -114942346#0 174981007#0 -174981007#1 -174981007#2 -174981007#3 1300523645#0 -577844862#2 -577844862#1 147085024#1 147085007"/>
    </person>
    <person id="ped24" type="ped_pedestrian" depart="32.60">
        <walk edges="686161899#2 488676847#1 581641995" busStop="6372559487"/> <!-- Kristian IVs gate -->
        <walk edges="739669574#0 739669574#1 488657707#3 488657707#2 488657707#1 488657707#0 -174981007#1 174981007#0 -114942346#0 -114942346#1 -114942346#3 -114942346#4 -114942346#5 175018563#0 172521064#1 172521064#0 -348759715 -1374271746#1 348759716 -176341541#0 176341541#0"/>
    </person>
    <person id="ped25" type="ped_pedestrian" depart="33.95">
        <walk edges="241869417#2 621811062#0 621811062#1 241869420 621949990 241867304 241867305#0 241867305#1 173830394#2 173830394#3 1300523648 541397556 278422411#0 278422411#1 278423419 278423854#0 278423854#1 482049399#3 482049404#0 738342022#3 738342026#1 738342026#2 738342026#3 738342026#4 738342026#5 738342026#6 482049403#0 738342033#1 738342034#1 738342035#0 739669545#1 739669556 738342060#0 738342060#1 738342061#2 -109901549#1 -109901549#0 109901549#0"/>
    </person>
    <person id="ped26" type="ped_pedestrian" depart="35.31">
        <walk edges="143733744#0 738342046#1 738342045 488676845#1 738342042#0 488676847#3 488676847#2 581641995" busStop="6372559487"/> <!-- Kristian IVs gate -->
        <walk edges="739669574#0 739669574#1"/>
    </person>
    <person id="ped27" type="ped_pedestrian" depart="36.67">
        <walk edges="738342023#0 738342032 739669551 739669552 173828860#1 38422715#1 581641916#2 581641916#1 581641913#0 581641913#1 54750112#3 705960048 54750595 686161884#1 686161884#0 686161883#1 686161883#0 739669518 686161879#1 686161874#2 686161874#1 686161874#0 686161873#1 686161873#0"/>
    </person>
    <person id="ped28" type="ped_pedestrian" depart="38.03">
        <walk edges="-738342138#0 738342138#1 686161878#1 686161877#0 739669610#1 739669610#0 738342119#1 172513887#2 172513887#1 -172517265#12 172517265#15 1028294724#0 738342071#0 738342093#1"/>
    </person>
    <person id="ped29" type="ped_pedestrian" depart="39.39">
        <walk edges="-621949988#0 241968444 241974851#2 241974851#3"/>
    </person>
    <person id="ped30" type="ped_pedestrian" depart="40.75">
        <walk edges="774714142#1 739669506#1 739669510#1 739669515#0 739669522#0 739669517#1 -172517265#3 -172517265#2 -172517265#1 -172517265#0 -279740160#2 -279740160#1 738342160#0 176341541#0 176341541#1 -736669115#2 -736669115#1 -736669115#0 736669115#0"/>
    </person>
    <person id="ped31" type="ped_pedestrian" depart="42.10">
        <walk edges="581641930#0 173827051#3 738342061#2 738342060#2"/>
    </person>
    <person id="ped32" type="ped_pedestrian" depart="43.46">
        <walk edges="739669494#0 739669497#1 739669497#0 -739669513#1 -739669513#0 739669514#1 739669514#0 -738342049 705961947#1 705961947#0 -738342051#1" busStop="6372565608"/> <!-- Rådhuset (K) -->
        <walk edges="686161884#1 686161884#0 738342054#0" busStop="6372565603"/> <!-- Rådhuset (N) -->
        <walk edges="738342056#0 738342130#0 738342130#1 738342130#2"/>
    </person>
    <person id="ped33" type="ped_pedestrian" depart="44.82">
        <walk edges="1193768396#0 172513876#1 172513876#0 172517269#0 738342137#1 686161871#0 686161871#1 686161870#0 686161870#1 686161873#0 686161873#1 686161874#0 686161874#1 686161874#2 686161879#1 739669518 686161883#0 686161883#1 686161884#0 686161884#1 686161888 686161887#1" busStop="6372567023"/> <!-- Gyldengården (J) -->
        <walk edges="686161889#1 739669579#0 739669577#0 686161892#0 739669600" busStop="6372560820"/> <!-- Henrik Wergelands gate (I) -->
        <walk edges="739669597 739669595#0 739669595#1 739669568#1 739669566#0 739669564#2 738342040 738342039#1 738342039#0 738342045 738342046#1 -143733744#0"/>
    </person>
    <person id="ped34" type="ped_pedestrian" depart="46.18">
        <walk edges="173823265 173823267#1 738342078#4 738342074#2 738342074#1 738342073#1 738342073#0 738342069#1 738342068#1 738342068#0 738342063#2 738342058#2 739669556 739669545#1 738342035#0 738342034#1 738342033#1 482049403#0 738342026#6 738342026#5 738342026#4 738342026#3 738342026#2 738342026#1 738342022#3 482049404#0 482049399#3 278423854#1 278423854#0 278423419 278423474#1 -278422411#0 -143733744#2 -143733744#1 143733744#1"/>
    </person>
    <person id="ped36" type="ped_pedestrian" depart="48.89">
        <walk edges="739669517#1 739669521 738342138#6 -738342138#5 -738342138#4 -738342138#3 -738342138#1 686161872#0 109867986#1 686161869#2 738342137#1 738342137#0 738342117#0 738342113#1 739669606#1 739669606#2 738342107#1 738342107#0 738342086#1 738342085#0 738342079#1 738342079#0 581642006 173823055"/>
    </person>
    <person id="ped37" type="ped_pedestrian" depart="50.25">
        <walk edges="738342026#7 738342026#6 738342026#5 738342026#4 738342026#3 738342026#2 738342026#1 738342022#3 482049404#0 482049399#3 278423854#1 278423854#0 278423419 278423474#1"/>
    </person>
    <person id="ped38" type="ped_pedestrian" depart="51.61">
        <walk edges="739669551 482049403#2 482049403#0 482049398#6 482049398#5"/>
    </person>
    <person id="ped39" type="ped_pedestrian" depart="52.97">
        <walk edges="142841686#0 142841686#1 -241869417#5 -241968243#1 -241968243#0 -241968241 -172575703#1 1300523647#0 1300523647#1 1300523647#2 173830394#0 173830394#1 173830394#2 173830394#3 1300523648 541397556 278422411#0 278422411#1 278423419 278423854#0 278423854#1 482049399#3 482049404#0 738342022#3 738342026#1 738342026#2 1256612926#0 1256612926#1 1256612928#2"/>
    </person>
    <person id="ped40" type="ped_pedestrian" depart="54.33">
        <walk edges="581641943 581641945#0 54643630#1 54643630#2 132564364#2"/>
    </person>
    <person id="ped41" type="ped_pedestrian" depart="55.69">
        <walk edges="581641999 738342139#0 686161868 581641997#1 738342145#0 739669535#2 739669535#1"/>
    </person>
    <person id="ped42" type="ped_pedestrian" depart="57.04">
        <walk edges="279740160#2 738342163#1 739669508#5 739669508#0 739669507#1 739669507#0 739669510#0 686161885#1 686161886 686161884#1 686161888 686161887#1" busStop="6372567023"/> <!-- Gyldengården (J) -->
        <walk edges="686161889#1 686161889#0 739669605#2 739669601#1 739669602#0 739669596#1 739669593#0 739669591#0 739669565#2 739669565#1 1151197765#1"/>
    </person>
    <person id="ped43" type="ped_pedestrian" depart="58.40">
        <walk edges="968480164#1 968480164#0 738342135#0 738342115#1 738342114#1 738342117#1 738342118 738342122#1 738342122#0 738342119#1 172513887#2 172513887#1 738342123#1 738342131#1 738342129#1 174980401#1 313459028#8 313459028#7 54750112#7 54750112#8 54750112#9 54750112#0 54750112#1"/>
    </person>
    <person id="ped44" type="ped_pedestrian" depart="59.76">
        <walk edges="-241869420 621949990 241867304 241867305#0 241867305#1 173830394#1 173830394#0 -1300523647#2 -1300523647#1 -1300523647#0 172575635#2 172575635#3 172575635#4 437623575#0 437623575#1 581641994#1" busStop="6372559487"/> <!-- Kristian IVs gate -->
        <walk edges="686161895#0 686161895#1 686161893#1 739669573#0 686161891#1 686161892#0 739669577#0 739669579#0 686161889#1" busStop="6372567023"/> <!-- Gyldengården (J) -->
        <walk edges="686161887#1 686161888 686161884#1 686161884#0 686161883#1 686161883#0 739669518 686161879#1 686161874#2 686161874#1 686161874#0 686161873#1 686161873#0 739669611#1 739669611#0 738342121#1 -172513887#5"/>
    </person>
    <person id="ped45" type="ped_pedestrian" depart="61.12">
        <walk edges="-315368448 -176341195#0 625501393#1 -278419754#0 278418941#0 738342158#1 738342162#4 738342162#3 739669500#0 739669500#1 739669508#0 739669507#1 739669507#0 739669510#0 686161885#1 686161886 686161884#1 686161888 686161887#1" busStop="6372567023"/> <!-- Gyldengården (J) -->
        <walk edges="686161889#1 686161889#0 686161890#1"/>
    </person>
    <person id="ped46" type="ped_pedestrian" depart="62.48">
        <walk edges="738342138#5 686161882#1 686161881#1 739669519#1 738342052#0 738342053#2 738342051#1 705961947#0 705961947#1 738342050 739669581#1 739669580#1 739669578#1 739669577#2 739669576#1 739669575#1 739669573#2 739669586#0 739669574#1 739669574#0" busStop="6372559487"/> <!-- Kristian IVs gate -->
        <walk edges="581641994#1 437623575#1 437623575#0 -172575635#4 -172575635#3 -172575635#2 -621949988#1 241968444 -241974851#0 -621811062#1 -621811062#0 -241869417#2 -241971122 -241869417#0 338539032#1"/>
    </person>
    <person id="ped47" type="ped_pedestrian" depart="63.83">
        <walk edges="-172575635#4 -172575635#3 242276850#1"/>
    </person>
    <person id="ped48" type="ped_pedestrian" depart="65.19">
        <walk edges="968480163#3 172513876#0 738342135#3 738342135#2 738342135#1 738342135#0 738342115#1 738342114#1 738342117#1 738342118 738342122#1 738342122#0 739669610#0 581641893#1"/>
    </person>
    <person id="ped49" type="ped_pedestrian" depart="66.55">
        <walk edges="739669600 739669596#0 739669596#1 739669602#0 739669601#1 739669605#2 686161889#0 686161889#1" busStop="6372567023"/> <!-- Gyldengården (J) -->
        <walk edges="686161887#1 686161888 686161884#1" busStop="6372565608"/> <!-- Rådhuset (K) -->
        <walk edges="-738342051#1 738342053#2 774714142#1 739669506#1 739669507#0 739669507#1 739669508#0"/>
    </person>
    <person id="ped50" type="ped_pedestrian" depart="67.91">
        <walk edges="-1113239917 -147085024#1 577844862#1 577844862#2 1300523645#0 1300523645#1 437623575#0 437623575#1 581641994#1" busStop="6372559487"/> <!-- Kristian IVs gate -->
        <walk edges="686161895#0 739669589#2 739669589#1 739669589#0 739669571 739669569#0 739669568#0 739669565#1 1151197765#1 1151197765#2 -1151197765#2" busStop="10815857717"/> <!-- Henrik Wergelands gate -->
        <walk edges="739669598 313459028#1 313459028#2 313459028#3 313459028#4 313459028#5 174972599 175556040#2 739669544#1 739669557 738342058#0 738342066#1 738342066#0 738342065#0 738342071#1 738342092#3 738342092#2 738342089#1 738342088"/>
    </person>
    <person id="ped51" type="ped_pedestrian" depart="69.27">
        <walk edges="738342059#1 738342055#1 738342054#1 738342054#0 686161884#0 686161884#1 686161888 686161887#1" busStop="6372567023"/> <!-- Gyldengården (J) -->
        <walk edges="686161889#1 739669579#0 739669577#0 686161892#0 686161891#1 739669573#0 686161893#1 686161895#1 686161895#0 739669589#2 581641903#2 581641901 488656018#2 581641902#1 581641902#2"/>
    </person>
    <person id="ped53" type="ped_pedestrian" depart="71.98">
        <walk edges="-346933597 -241869417#3 621811062#0 621811062#1 241869420 621949990 241867304 241867305#0 241867305#1 173830394#2 173830394#3 1300523648 541397556 278422411#0 278422411#1 278423419 278423854#0 278423854#1 482049399#2 482049399#1 482049399#0 738342030#1 321272294#3 321272294#2 321272294#1" busStop="-1572848525"/> <!-- 14 -->
        <walk edges="1179994250#0 1179994250#1 1179994250#2 1318790745 1179994247#1 41558495#1"/>
    </person>
    <person id="ped54" type="ped_pedestrian" depart="73.34">
        <walk edges="448004538 -456312668 -1194061545#0 1193851321#1 1193851321#2 -241869417#5 -241968243#1 -241968243#0 -241968241 242276850#0 242276850#1 172575635#3 172575635#4 1300523645#1 -174981007#3 -174981007#2 488657707#0 739669586#5"/>
    </person>
    <person id="ped55" type="ped_pedestrian" depart="74.70">
        <walk edges="739669517#0 739669522#0 739669517#1 581641963#1 -581641962#1 581641961 174977892#0 739669523#0 739669524#1 739669529#0 739669529#1 739669531#0 739669531#1 738342140#4 54643637#1 54643637#0 1193786324 54643636#1 132564366#0"/>
    </person>
    <person id="ped56" type="ped_pedestrian" depart="76.06">
        <walk edges="54643630#7 581641942 581641944#0 54643630#5 109867986#0 686161869#2 686161871#0 686161871#1 686161870#0 686161870#1 686161873#0 686161873#1 686161874#0 686161874#1 686161874#2 686161879#1 739669518 686161883#0 686161883#1 686161884#0 686161884#1 686161888 686161887#1" busStop="6372567023"/> <!-- Gyldengården (J) -->
        <walk edges="686161889#1 739669579#0 739669577#0 686161892#0 686161891#1 739669573#0 686161893#1 686161895#1 686161895#0 739669589#2 739669589#1 739669589#0 -739669588"/>
    </person>
    <person id="ped57" type="ped_pedestrian" depart="77.42">
        <walk edges="739669550#0 739669552 173828860#1 38422715#1 581641916#2 581641916#1 581641913#0 581641913#1 54750112#3 705960048 54750595 175018559#0 175018559#1 175018559#2 738342049 739669514#0 739669514#1 739669513#0"/>
    </person>
    <person id="ped58" type="ped_pedestrian" depart="78.77">
        <walk edges="172517265#3 739669515#0 739669510#1 739669506#1 774714142#1 738342053#2 738342051#1 705961947#0"/>
    </person>
    <person id="ped59" type="ped_pedestrian" depart="80.13">
        <walk edges="686161872#1 686161870#1 686161873#0 686161873#1 686161874#0 686161874#1 686161882#0 -172517265#6 739669522#0 739669517#1 -172517265#3 -172517265#2 -172517265#1 -172517265#0 -279740160#2 279740160#1 738342158#0 -278419756#0 -581641964"/>
    </person>
    <person id="ped60" type="ped_pedestrian" depart="81.49">
        <walk edges="738342121#0 738342120#1 738342120#0 738342119#0 172513887#2 172513887#1 738342123#0 738342130#1 738342130#0 738342056#0" busStop="6372565603"/> <!-- Rådhuset (N) -->
        <walk edges="738342054#0 686161884#0 686161884#1 686161888 686161887#1" busStop="6372567023"/> <!-- Gyldengården (J) -->
        <walk edges="686161889#1 739669579#0 739669577#0 686161892#0 686161891#1 739669573#0 686161893#1 686161895#1 686161895#0" busStop="6372559487"/> <!-- Kristian IVs gate -->
        <walk edges="581641994#1 437623575#1 437623575#0 -172575635#4 -172575635#3 -172575635#2 1300523647#0 1300523647#1 1300523647#2 173830394#0 173830394#1 -241867305#1 581641907#0"/>
    </person>
    <person id="ped61" type="ped_pedestrian" depart="82.85">
        <walk edges="738342131#3 738342126#1 -172513887#1 581641892#0 581641892#1 -581641893#1 739669610#1 686161873#1 686161873#0 686161870#1 686161870#0 686161871#1 686161871#0 686161869#2 109867986#0 54643630#5 581641944#0 581641942 54643630#7 54643630#1 54643636#0 54643636#1 54643636#2 581641895"/>
    </person>
    <person id="ped62" type="ped_pedestrian" depart="84.21">
        <walk edges="-101220223#0 145335494#0 482049398#1 482049398#2 1256612928#3 1256612928#2 1256612928#1 1256612928#0 738342026#6 482049403#0 739669550#0 739669552 173828860#1 38422715#1 581641916#2 581641916#1 581641913#0 581641913#1 54750112#3 173829549#2"/>
    </person>
    <person id="ped63" type="ped_pedestrian" depart="85.57">
        <walk edges="-1151197766 -1151197765#1 739669565#1 739669568#0"/>
    </person>
    <person id="ped64" type="ped_pedestrian" depart="86.92">
        <walk edges="739669520#0 739669521 739669517#1 -172517265#3 -172517265#2 -172517265#1 -172517265#0 -279740160#2 738342164#0"/>
    </person>
    <person id="ped65" type="ped_pedestrian" depart="88.28">
        <walk edges="172543837" busStop="-6436451255"/> <!-- Kristiansand -->
        <walk edges="515843008 -515843008 145335921#4 321272294#3 321272294#2 321272294#1" busStop="-1572848525"/> <!-- 14 -->
        <walk edges="1179994250#0 482049413#5 145335922#1 145335922#2 482049418#1 482049398#0 482049398#1 482049398#2 1256612928#3 1256612928#2 1256612928#1 1256612928#0 738342026#6 482049403#0 738342033#1 738342034#1 738342035#0 739669544#0 739669543#1 174972599 313459028#6 313459028#7 313459028#8 174980401#1 738342129#1 738342131#1 738342123#1 -172517265#9"/>
    </person>
    <person id="ped66" type="ped_pedestrian" depart="89.64">
        <walk edges="739669519#1 686161885#1 686161886 686161884#1 686161888 686161887#1 686161889#2 739669582#0 739669582#1"/>
    </person>
    <person id="ped67" type="ped_pedestrian" depart="91.00">
        <walk edges="-241867305#0 241867305#1 173830394#1 173830394#0 -1300523647#2 -1300523647#1 -1300523647#0 172575635#2 172575635#3 172575635#4 437623575#0 437623575#1 581641994#1" busStop="6372559487"/> <!-- Kristian IVs gate -->
        <walk edges="739669574#0 739669574#1 488657707#3"/>
    </person>
    <person id="ped68" type="ped_pedestrian" depart="92.36">
        <walk edges="-174980401#0 738342129#1 738342131#1 738342123#1 172513887#1 172513887#2 738342119#1"/>
    </person>
    <person id="ped69" type="ped_pedestrian" depart="93.71">
        <walk edges="738342123#0 172517265#9 686161879#1 686161881#0 172517265#6 739669522#0 739669517#1 -172517265#3 -172517265#2 -172517265#1 -172517265#0 -279740160#2 -279740160#1 738342160#0 176341541#0 176341541#1 -568772887#2 -568772887#1 315269425#0 315269425#1 568773043 -568773043"/>
    </person>
    <person id="ped70" type="ped_pedestrian" depart="95.07">
        <walk edges="482049413#6" busStop="-1572848525"/> <!-- 14 -->
        <walk edges="321272294#1 321272294#2 321272294#3 738342030#1 482049399#0 482049410#0 738342021#0 739669613 739669565#4 739669594#0 739669592#0 739669597 686161891#0 739669575#0 739669586#2 739669586#3 581641918#1"/>
    </person>
    <person id="ped71" type="ped_pedestrian" depart="96.43">
        <walk edges="142841686#0 142841686#1 -241869417#5 -241968243#1 -241968243#0 -241968241 242276850#0 242276850#1 172575635#3 172575635#4 1300523645#1 -174981007#3 -174981007#2 -174981007#1 174981007#0 174981006 774714141#3 739669514#1"/>
    </person>
    <person id="ped72" type="ped_pedestrian" depart="97.79">
        <walk edges="348759715 172521064#0 172521064#1 175018563#0 -114942346#5 -114942346#4 -114942346#3 -114942346#1 -114942346#0 174981007#0 -174981007#1 -174981007#2 -174981007#3 1300523645#0 -577844862#2 -577844862#1 147085024#1 -1113239917 1113240356"/>
    </person>
    <person id="ped73" type="ped_pedestrian" depart="99.15">
        <walk edges="581641907#0 173830394#3 1300523648 541397556 278422411#0 278422410 278422413 739669560#1 739669559 172429099#1 172429099#2 278421873#0 278421873#1 278421873#2 313459028#0 313459028#1 313459028#2 313459028#3 54750112#9 54750112#8 54750112#7 313459028#7 313459028#8 173828939#0 173828939#1 738342093#2 738342094#0"/>
    </person>
    <person id="ped74" type="ped_pedestrian" depart="100.51">
        <walk edges="1040199123 37057409#2 37057409#3 37057409#4 37057409#6 -858716587 -581641965#0 -278419758#0 -175018554#5 -175018554#4 -175018554#3 -175018554#1 172575674#0"/>
    </person>
    <person id="ped75" type="ped_pedestrian" depart="101.86">
        <walk edges="968480163#1 968480163#0 968480164#0 738342135#0 738342115#1 738342114#1 738342117#1 738342118 738342122#1 738342122#0 738342119#1 172513887#2 172513887#1 738342123#1 738342131#1 738342129#1 174980401#1 313459028#8 313459028#7 54750112#7 54750112#8 54750112#9 313459028#3 313459028#2 174970822#1 739669558 738342025#0"/>
    </person>
    <person id="ped77" type="ped_pedestrian" depart="104.58">
        <walk edges="-427635746#1 621949990 241867304 241867305#0 241867305#1 173830394#2 173830394#3 1300523648 541397556 278422411#0 278422411#1 278423419 278423854#0 278423854#1 482049399#3 482049404#0 738342022#3 738342026#1 738342026#2 738342026#3 738342026#4 738342026#5 738342026#6 482049403#0 738342033#1 1179994247#0"/>
    </person>
    <person id="ped78" type="ped_pedestrian" depart="105.94">
        <walk edges="174979610#0 32516784#3 32516784#2 32516784#1 32516784#0 54640130#3 581641990#1 581641990#0 1193851312 1193851313 1193851314 -80340418#4 80340418#4 80340418#3 80340418#2 581642005#1 581642005#2 581642005#3"/>
    </person>
    <person id="ped79" type="ped_pedestrian" depart="107.30">
        <walk edges="1193768396#1 172513876#1 172513876#0 172517269#0 738342137#1 686161871#0 686161871#1 686161870#0 686161870#1 686161873#0 686161873#1 686161874#0 686161874#1 686161874#2 686161879#1 739669518 686161883#0 686161883#1 686161884#0 686161884#1 686161888 686161887#1" busStop="6372567023"/> <!-- Gyldengården (J) -->
        <walk edges="686161889#1 686161889#0 739669605#2 739669601#1 739669602#0 739669596#1 739669593#0 739669591#0 739669565#2 739669565#1 1151197765#1 1151197766"/>
    </person>
    <person id="ped80" type="ped_pedestrian" depart="108.65">
        <walk edges="-174981006 68251742#1 739669577#2 739669576#1 739669575#1 739669573#0 686161893#2"/>
    </person>
    <person id="ped81" type="ped_pedestrian" depart="110.01">
        <walk edges="1193768396#0 172513876#1 172513876#0 738342135#3 738342135#2 738342135#1 738342135#0 738342115#1 738342114#1 738342117#1 738342118 738342122#1 738342122#0 738342119#1 172513887#2 172513887#1 738342123#1 738342131#1 738342129#1 174980401#1 313459028#8 313459028#7 313459028#6 174972599 739669543#1 739669543#0"/>
    </person>
    <person id="ped82" type="ped_pedestrian" depart="111.37">
        <walk edges="739669507#0 739669506#1 739669506#0 739669505#1 -774714141#1 -774714141#3 -174981006"/>
    </person>
    <person id="ped83" type="ped_pedestrian" depart="112.73">