<?xml version="1.0" encoding="UTF-8"?>

<!-- generated on 2025-05-07 20:54:12.199010 by osmWebWizard.py v1_22_0+0002-63e50f52594
<configuration>
    <net-file value="E:\SUMO\tools\2025-05-07-20-53-58\osm.net.xml.gz"/>
    <output-trip-file value="E:\SUMO\tools\2025-05-07-20-53-58\osm.bus.trips.xml"/>
    <route-file value="E:\SUMO\tools\2025-05-07-20-53-58\osm.bus.rou.xml"/>
    <prefix value="bus"/>
    <trip-attributes value="departLane=&quot;best&quot;"/>
    <fringe-start-attributes value="departSpeed=&quot;max&quot;"/>
    <vehicle-class value="bus"/>
    <fringe-factor value="5"/>
    <vclass value="bus"/>
    <via-edge-types value="highway.motorway,highway.motorway_link,highway.trunk_link,highway.primary_link,highway.secondary_link,highway.tertiary_link"/>
    <min-distance value="600.0"/>
    <min-distance.fringe value="10.0"/>
    <remove-loops value="True"/>
    <validate value="True"/>
    <end value="600.0"/>
    <insertion-density value="15.0"/>
</configuration>
-->

<!-- generated on 2025-05-07 20:54:12 by Eclipse SUMO duarouter Version 1.22.0
<duarouterConfiguration xmlns:xsi="http://www.w3.org/2001/XMLSchema-instance" xsi:noNamespaceSchemaLocation="http://sumo.dlr.de/xsd/duarouterConfiguration.xsd">

    <input>
        <net-file value="E:\SUMO\tools\2025-05-07-20-53-58\osm.net.xml.gz"/>
        <route-files value="E:\SUMO\tools\2025-05-07-20-53-58\osm.bus.trips.xml"/>
    </input>

    <output>
        <output-file value="E:\SUMO\tools\2025-05-07-20-53-58\osm.bus.trips.xml.tmp"/>
        <alternatives-output value="NUL"/>
        <write-trips value="true"/>
    </output>

    <processing>
        <remove-loops value="true"/>
    </processing>

    <time>
        <begin value="0.0"/>
        <end value="600.0"/>
    </time>

    <report>
        <no-warnings value="true"/>
        <ignore-errors value="true"/>
        <no-step-log value="true"/>
    </report>

</duarouterConfiguration>
-->

<routes xmlns:xsi="http://www.w3.org/2001/XMLSchema-instance" xsi:noNamespaceSchemaLocation="http://sumo.dlr.de/xsd/routes_file.xsd">
    <vType id="bus_bus" vClass="bus"/>
    <trip id="bus0" type="bus_bus" depart="0.00" departLane="best" from="174968832" to="-114942386#0"/>
    <trip id="bus1" type="bus_bus" depart="5.82" departLane="best" departSpeed="max" from="-175555221#7" to="-175018558#2"/>
    <trip id="bus3" type="bus_bus" depart="17.47" departLane="best" from="-68251746#3" to="1203771483#1"/>
    <trip id="bus5" type="bus_bus" depart="29.12" departLane="best" departSpeed="max" from="-174979605#1" to="172591073#1"/>
    <trip id="bus6" type="bus_bus" depart="34.95" departLane="best" from="313459026#4" to="175018558#2"/>
    <trip id="bus7" type="bus_bus" depart="40.77" departLane="best" from="-32557950#5" to="-174970821#0"/>
    <trip id="bus8" type="bus_bus" depart="46.60" departLane="best" from="172136766" to="774714141#1"/>
    <trip id="bus10" type="bus_bus" depart="58.25" departLane="best" departSpeed="max" from="37057405#0" to="172577543#2"/>
    <trip id="bus11" type="bus_bus" depart="64.07" departLane="best" departSpeed="max" from="-172136783#1" to="-175324818#0"/>
    <trip id="bus12" type="bus_bus" depart="69.90" departLane="best" from="-376508066#0" to="-175018553#6"/>
    <trip id="bus13" type="bus_bus" depart="75.72" departLane="best" from="80340409#2" to="174975368#1"/>
    <trip id="bus14" type="bus_bus" depart="81.55" departLane="best" from="32702484#1" to="280221383#2"/>
    <trip id="bus15" type="bus_bus" depart="87.37" departLane="best" departSpeed="max" from="38846080" to="-376508066#0"/>
    <trip id="bus16" type="bus_bus" depart="93.20" departLane="best" from="-175018561#0" to="175555221#6"/>
    <trip id="bus17" type="bus_bus" depart="99.02" departLane="best" from="-581641877#2" to="175018555#9"/>
    <trip id="bus18" type="bus_bus" depart="104.85" departLane="best" from="172517265#15" to="174968832"/>
    <trip id="bus19" type="bus_bus" depart="110.67" departLane="best" departSpeed="max" from="-1334853101#1" to="-80340409#10"/>
    <trip id="bus22" type="bus_bus" depart="128.14" departLane="best" from="-80340418#2" to="68251746#2"/>
    <trip id="bus23" type="bus_bus" depart="133.97" departLane="best" departSpeed="max" from="-278420612#2" to="174974218#2"/>
    <trip id="bus24" type="bus_bus" depart="139.79" departLane="best" from="-172577542#1" to="-174968833#1"/>
    <trip id="bus26" type="bus_bus" depart="151.44" departLane="best" from="-278423418" to="172517267#1"/>
    <trip id="bus27" type="bus_bus" depart="157.27" departLane="best" departSpeed="max" from="38846080" to="68251740#1"/>
    <trip id="bus28" type="bus_bus" depart="163.09" departLane="best" from="-172428400#2" to="172136783#1"/>
    <trip id="bus29" type="bus_bus" depart="168.92" departLane="best" from="-278420612#1" to="173821295#2"/>
    <trip id="bus31" type="bus_bus" depart="180.57" departLane="best" from="175324818#1" to="38846172"/>
    <trip id="bus32" type="bus_bus" depart="186.39" departLane="best" from="-68251746#4" to="-175018555#1"/>
    <trip id="bus33" type="bus_bus" depart="192.22" departLane="best" from="172428400#0" to="175556040#2"/>
    <trip id="bus35" type="bus_bus" depart="203.87" departLane="best" from="-32557950#2" to="172591073#1"/>
    <trip id="bus36" type="bus_bus" depart="209.69" departLane="best" from="-174981007#0" to="175018555#9"/>
    <trip id="bus37" type="bus_bus" depart="215.51" departLane="best" from="-174977895#2" to="173821295#5"/>
    <trip id="bus38" type="bus_bus" depart="221.34" departLane="best" from="-172513887#5" to="114942346#5"/>
    <trip id="bus39" type="bus_bus" depart="227.16" departLane="best" from="175018555#9" to="174981007#2"/>
    <trip id="bus40" type="bus_bus" depart="232.99" departLane="best" from="774714142#1" to="172543836#3"/>
    <trip id="bus41" type="bus_bus" depart="238.81" departLane="best" departSpeed="max" from="-581641966#1" to="-581641868#0"/>
    <trip id="bus42" type="bus_bus" depart="244.64" departLane="best" departSpeed="max" from="-174966999" to="1203771483#2"/>
    <trip id="bus43" type="bus_bus" depart="250.46" departLane="best" from="-175018555#4" to="581641966#1"/>
    <trip id="bus44" type="bus_bus" depart="256.29" departLane="best" from="-80340409#10" to="-376508066#2"/>
    <trip id="bus45" type="bus_bus" depart="262.11" departLane="best" from="172513887#1" to="-172428400#3"/>
    <trip id="bus46" type="bus_bus" depart="267.94" departLane="best" from="-80340418#3" to="35876587"/>
    <trip id="bus47" type="bus_bus" depart="273.76" departLane="best" departSpeed="max" from="-581641966#1" to="-172513887#2"/>
    <trip id="bus48" type="bus_bus" depart="279.59" departLane="best" from="175324818#1" to="313459026#1"/>
    <trip id="bus49" type="bus_bus" depart="285.41" departLane="best" from="-80340418#2" to="114942346#0"/>
    <trip id="bus50" type="bus_bus" depart="291.24" departLane="best" from="68251742#1" to="80340418#4"/>
    <trip id="bus51" type="bus_bus" depart="297.06" departLane="best" from="-172577542#1" to="32557950#2"/>
    <trip id="bus52" type="bus_bus" depart="302.89" departLane="best" from="1232002724#1" to="172591073#1"/>
    <trip id="bus53" type="bus_bus" depart="308.71" departLane="best" from="-1203771483#0" to="36516164"/>
    <trip id="bus54" type="bus_bus" depart="314.54" departLane="best" from="172577543#1" to="697286740"/>
    <trip id="bus55" type="bus_bus" depart="320.36" departLane="best" from="-175018553#1" to="172577542#1"/>
    <trip id="bus56" type="bus_bus" depart="326.18" departLane="best" departSpeed="max" from="41955378" to="175555221#6"/>
    <trip id="bus57" type="bus_bus" depart="332.01" departLane="best" from="-68251746#2" to="172591073#1"/>
    <trip id="bus58" type="bus_bus" depart="337.83" departLane="best" from="-174968833#2" to="175555221#7"/>
    <trip id="bus59" type="bus_bus" depart="343.66" departLane="best" from="-175018553#3" to="101220223#0"/>
    <trip id="bus60" type="bus_bus" depart="349.48" departLane="best" from="581641868#0" to="32557950#4"/>
    <trip id="bus61" type="bus_bus" depart="355.31" departLane="best" from="-145335922#2" to="172521074#1"/>
    <trip id="bus62" type="bus_bus" depart="361.13" departLane="best" from="-145335922#2" to="-175018555#2"/>
    <trip id="bus63" type="bus_bus" depart="366.96" departLane="best" from="175324818#1" to="581642011#1"/>
    <trip id="bus64" type="bus_bus" depart="372.78" departLane="best" departSpeed="max" from="38846080" to="41955520#5"/>
    <trip id="bus65" type="bus_bus" depart="378.61" departLane="best" departSpeed="max" from="-35969188" to="-174970821#0"/>
    <trip id="bus66" type="bus_bus" depart="384.43" departLane="best" from="172517265#1" to="172543836#1"/>
    <trip id="bus67" type="bus_bus" depart="390.26" departLane="best" from="-175555221#5" to="174966998#1"/>
    <trip id="bus69" type="bus_bus" depart="401.91" departLane="best" from="-1028294724#0" to="280221383#2"/>
    <trip id="bus71" type="bus_bus" depart="413.56" departLane="best" from="-697286740" to="278420612#0"/>
    <trip id="bus73" type="bus_bus" depart="425.20" departLane="best" from="-32557950#3" to="172591073#1"/>
    <trip id="bus74" type="bus_bus" depart="431.03" departLane="best" from="-172575708#0" to="172591072#1"/>
    <trip id="bus76" type="bus_bus" depart="442.68" departLane="best" from="-175018555#4" to="-172575638"/>
    <trip id="bus78" type="bus_bus" depart="454.33" departLane="best" departSpeed="max" from="37057405#0" to="774714142#1"/>
    <trip id="bus79" type="bus_bus" depart="460.15" departLane="best" from="313459029#3" to="-41960374#0"/>
    <trip id="bus80" type="bus_bus" depart="465.98" departLane="best" from="313459026#1" to="38573226#0"/>
    <trip id="bus82" type="bus_bus" depart="477.63" departLane="best" departSpeed="max" from="-174979605#1" to="32557950#6"/>
    <trip id="bus83" type="bus_bus" depart="483.45" departLane="best" departSpeed="max" from="-80340418#4" to="-32673189#1"/>
    <trip id="bus84" type="bus_bus" depart="489.28" departLane="best" departSpeed="max" from="306121243#0" to="-175018558#8"/>
    <trip id="bus85" type="bus_bus" depart="495.10" departLane="best" from="114942319#2" to="-175018553#0"/>
    <trip id="bus86" type="bus_bus" depart="500.93" departLane="best" departSpeed="max" from="-313459027#1" to="38573226#0"/>
    <trip id="bus87" type="bus_bus" depart="506.75" departLane="best" from="-686161875#0" to="-32515027"/>
    <trip id="bus88" type="bus_bus" depart="512.58" departLane="best" departSpeed="max" from="174968833#0" to="1028294724#0"/>
    <trip id="bus90" type="bus_bus" depart="524.23" departLane="best" from="581642010#0" to="-172575708#3"/>
    <trip id="bus91" type="bus_bus" depart="530.05" departLane="best" from="-172517265#12" to="114942346#5"/>
    <trip id="bus92" type="bus_bus" depart="535.87" departLane="best" from="175018555#8" to="-37056909"/>
    <trip id="bus93" type="bus_bus" depart="541.70" departLane="best" from="-172575708#4" to="172517253#1"/>
    <trip id="bus95" type="bus_bus" depart="553.35" departLane="best" from="-145335922#1" to="581641966#1"/>
    <trip id="bus96" type="bus_bus" depart="559.17" departLane="best" from="172136791#0" to="175555221#7"/>
    <trip id="bus97" type="bus_bus" depart="565.00" departLane="best" departSpeed="max" from="175324818#0" to="174981007#0"/>
    <trip id="bus98" type="bus_bus" depart="570.82" departLane="best" departSpeed="max" from="-35969188" to="-172517265#1"/>
    <trip id="bus101" type="bus_bus" depart="588.30" departLane="best" from="581642010#1" to="175018553#1"/>
    <trip id="bus103" type="bus_bus" depart="599.95" departLane="best" from="-101220223#0" to="-32516780#0"/>
</routes>
