<?xml version="1.0" encoding="UTF-8"?>

<!-- generated on 2025-05-07 20:54:07 by Eclipse SUMO netconvert Version 1.22.0
<netconvertConfiguration xmlns:xsi="http://www.w3.org/2001/XMLSchema-instance" xsi:noNamespaceSchemaLocation="http://sumo.dlr.de/xsd/netconvertConfiguration.xsd">

    <input>
        <type-files value="${SUMO_HOME}\data\typemap\osmNetconvert.typ.xml,${SUMO_HOME}\data\typemap\osmNetconvertUrbanDe.typ.xml,${SUMO_HOME}\data\typemap\osmNetconvertPedestrians.typ.xml,${SUMO_HOME}\data\typemap\osmNetconvertAerialway.typ.xml"/>
        <osm-files value="osm_bbox.osm.xml.gz"/>
    </input>

    <output>
        <output-file value="osm.net.xml.gz"/>
        <output.street-names value="true"/>
        <output.original-names value="true"/>
        <ptstop-output value="osm_stops.add.xml"/>
        <ptline-output value="osm_ptlines.xml"/>
    </output>

    <projection>
        <proj.utm value="true"/>
    </projection>

    <processing>
        <geometry.remove value="true"/>
        <roundabouts.guess value="true"/>
    </processing>

    <tls_building>
        <tls.discard-simple value="true"/>
        <tls.join value="true"/>
        <tls.guess-signals value="true"/>
        <tls.default-type value="actuated"/>
    </tls_building>

    <ramp_guessing>
        <ramps.guess value="true"/>
    </ramp_guessing>

    <junctions>
        <junctions.join value="true"/>
        <junctions.corner-detail value="5"/>
    </junctions>

    <pedestrian>
        <crossings.guess value="true"/>
    </pedestrian>

    <railway>
        <railway.topology.repair value="true"/>
    </railway>

    <formats>
        <osm.sidewalks value="true"/>
    </formats>

</netconvertConfiguration>
-->

<additional xmlns:xsi="http://www.w3.org/2001/XMLSchema-instance" xsi:noNamespaceSchemaLocation="http://sumo.dlr.de/xsd/additional_file.xsd">
    <busStop id="-1572848525" name="14" lane="-172543836#1_0" startPos="0.68" endPos="15.68" friendlyPos="true">
        <access lane="-101220223#1_0" pos="0.00" length="12.62" friendlyPos="1"/>
        <access lane="1179994250#0_0" pos="0.00" length="1.21" friendlyPos="1"/>
        <access lane="321272294#1_0" pos="12.56" length="13.72" friendlyPos="1"/>
        <access lane="482049413#5_0" pos="0.20" length="4.65" friendlyPos="1"/>
        <access lane="482049413#6_0" pos="0.20" length="3.30" friendlyPos="1"/>
    </busStop>
    <busStop id="-1579657315" name="Kvadraturen videregående skole" lane="-172517263#1_1" startPos="60.21" endPos="75.21" friendlyPos="true"/>
    <busStop id="-5594450691" name="Kristiansand" lane="-273358241#1_0" startPos="0.00" endPos="42.34" friendlyPos="true">
        <access lane="145335921#1_0" pos="20.09" length="46.64" friendlyPos="1"/>
        <access lane="482049405#0_0" pos="9.41" length="49.08" friendlyPos="1"/>
        <access lane="482049405#1_0" pos="29.81" length="11.21" friendlyPos="1"/>
        <access lane="482049406_0" pos="31.71" length="5.32" friendlyPos="1"/>
        <access lane="738342031#0_0" pos="19.26" length="41.71" friendlyPos="1"/>
    </busStop>
    <busStop id="-5594450719" name="Kristiansand" lane="-41973980#0_0" startPos="0.00" endPos="22.52" friendlyPos="true">
        <access lane="145335921#1_0" pos="20.10" length="39.77" friendlyPos="1"/>
        <access lane="482049405#0_0" pos="9.41" length="48.77" friendlyPos="1"/>
        <access lane="482049405#1_0" pos="29.67" length="4.34" friendlyPos="1"/>
        <access lane="482049406_0" pos="31.53" length="12.18" friendlyPos="1"/>
        <access lane="738342031#0_0" pos="19.09" length="34.84" friendlyPos="1"/>
    </busStop>
    <busStop id="-6009935309" name="Kristiansand" lane="-686689403_0" startPos="0.00" endPos="98.92" friendlyPos="true">
        <access lane="-515843008_0" pos="0.00" length="74.97" friendlyPos="1"/>
        <access lane="172543837_0" pos="44.41" length="114.40" friendlyPos="1"/>
        <access lane="321272295_0" pos="0.00" length="164.67" friendlyPos="1"/>
        <access lane="515843008_0" pos="116.12" length="72.96" friendlyPos="1"/>
        <access lane="608627629_0" pos="0.00" length="66.92" friendlyPos="1"/>
    </busStop>
    <busStop id="-6372559918" name="8" lane="-145335922#1_0" startPos="0.00" endPos="15.00" friendlyPos="true"/>
    <busStop id="-6372559926" name="9" lane="-145335922#2_0" startPos="0.00" endPos="0.20" friendlyPos="true"/>
    <busStop id="-6372559929" name="7" lane="-145335922#1_0" startPos="2.68" endPos="17.68" friendlyPos="true"/>
    <busStop id="-6372560906" name="Tinghuset (L)" lane="-774714142#1_1" startPos="18.49" endPos="33.49" friendlyPos="true"/>
    <busStop id="-6436451255" name="Kristiansand" lane="-273358244_0" startPos="0.00" endPos="76.92" friendlyPos="true">
        <access lane="-515843008_0" pos="0.00" length="40.95" friendlyPos="1"/>
        <access lane="172543837_0" pos="44.41" length="92.33" friendlyPos="1"/>
        <access lane="321272295_0" pos="0.00" length="124.00" friendlyPos="1"/>
        <access lane="515843008_0" pos="116.12" length="37.39" friendlyPos="1"/>
        <access lane="608627629_0" pos="0.20" length="67.86" friendlyPos="1"/>
    </busStop>
    <busStop id="10815857717" name="Henrik Wergelands gate" lane="313459029#0_0" startPos="72.02" endPos="87.02" friendlyPos="true">
        <access lane="-1151197765#2_0" pos="0.00" length="54.49" friendlyPos="1"/>
        <access lane="1151197765#2_0" pos="24.84" length="59.06" friendlyPos="1"/>
        <access lane="739669565#4_0" pos="48.37" length="18.47" friendlyPos="1"/>
        <access lane="739669594#1_0" pos="0.20" length="75.53" friendlyPos="1"/>
        <access lane="739669598_0" pos="49.70" length="1.90" friendlyPos="1"/>
    </busStop>
    <busStop id="10815857718" name="Vestre Strandgate (Z)" lane="1063702337_0" startPos="176.96" endPos="191.96" friendlyPos="true">
        <access lane="-278421874#0_0" pos="0.00" length="44.62" friendlyPos="1"/>
        <access lane="278423854#1_0" pos="132.89" length="0.34" friendlyPos="1"/>
        <access lane="482049399#3_0" pos="0.00" length="47.75" friendlyPos="1"/>
        <access lane="482049406_0" pos="8.62" length="36.74" friendlyPos="1"/>
        <access lane="739669541#1_0" pos="19.56" length="29.71" friendlyPos="1"/>
    </busStop>
    <busStop id="1856154634" name="Kvadraturen videregående skole" lane="172517263#1_1" startPos="28.00" endPos="43.00" friendlyPos="true"/>
    <busStop id="3789991174" name="Kristiansand" lane="375649997_0" startPos="0.00" endPos="25.00" friendlyPos="true">
        <access lane="-515843008_0" pos="1.57" length="176.85" friendlyPos="1"/>
        <access lane="172543837_0" pos="123.05" length="28.48" friendlyPos="1"/>
        <access lane="172543838_0" pos="121.26" length="138.43" friendlyPos="1"/>
        <access lane="515843008_0" pos="114.55" length="181.65" friendlyPos="1"/>
        <access lane="608627629_0" pos="0.20" length="154.71" friendlyPos="1"/>
    </busStop>
    <busStop id="5594450691" name="Kristiansand" lane="273358241#1_0" startPos="0.00" endPos="42.34" friendlyPos="true">
        <access lane="145335921#1_0" pos="20.09" length="46.64" friendlyPos="1"/>
        <access lane="482049405#0_0" pos="9.41" length="49.08" friendlyPos="1"/>
        <access lane="482049405#1_0" pos="29.81" length="11.21" friendlyPos="1"/>
        <access lane="482049406_0" pos="31.71" length="5.32" friendlyPos="1"/>
        <access lane="738342031#0_0" pos="19.26" length="41.71" friendlyPos="1"/>
    </busStop>
    <busStop id="5594450719" name="Kristiansand" lane="41973980#0_0" startPos="0.00" endPos="22.52" friendlyPos="true">
        <access lane="145335921#1_0" pos="20.10" length="39.77" friendlyPos="1"/>
        <access lane="482049405#0_0" pos="9.41" length="48.77" friendlyPos="1"/>
        <access lane="482049405#1_0" pos="29.67" length="4.34" friendlyPos="1"/>
        <access lane="482049406_0" pos="31.53" length="12.18" friendlyPos="1"/>
        <access lane="738342031#0_0" pos="19.09" length="34.84" friendlyPos="1"/>
    </busStop>
    <busStop id="5804415057" name="Tollbodgata (P)" lane="174980401#1_1" startPos="96.77" endPos="111.77" friendlyPos="true"/>
    <busStop id="6009935309" name="Kristiansand" lane="686689403_0" startPos="0.00" endPos="98.92" friendlyPos="true">
        <access lane="-515843008_0" pos="0.00" length="74.97" friendlyPos="1"/>
        <access lane="172543837_0" pos="44.41" length="114.40" friendlyPos="1"/>
        <access lane="321272295_0" pos="0.00" length="164.67" friendlyPos="1"/>
        <access lane="515843008_0" pos="116.12" length="72.96" friendlyPos="1"/>
        <access lane="608627629_0" pos="0.00" length="66.92" friendlyPos="1"/>
    </busStop>
    <busStop id="602732450" name="Henrik Wergelands gate (D)" lane="313459029#0_0" startPos="14.81" endPos="29.81" friendlyPos="true">
        <access lane="278421873#2_0" pos="0.20" length="40.14" friendlyPos="1"/>
        <access lane="313459028#0_0" pos="0.20" length="37.12" friendlyPos="1"/>
        <access lane="313459028#1_0" pos="0.00" length="36.97" friendlyPos="1"/>
        <access lane="739669565#4_0" pos="105.57" length="17.26" friendlyPos="1"/>
        <access lane="739669598_0" pos="106.91" length="1.66" friendlyPos="1"/>
    </busStop>
    <busStop id="602732451" name="Henrik Wergelands gate (E)" lane="313459029#0_0" startPos="40.76" endPos="55.76" friendlyPos="true">
        <access lane="278421873#2_0" pos="0.20" length="77.49" friendlyPos="1"/>
        <access lane="313459028#0_0" pos="0.20" length="75.99" friendlyPos="1"/>
        <access lane="313459028#1_0" pos="0.00" length="75.92" friendlyPos="1"/>
        <access lane="739669565#4_0" pos="79.61" length="16.41" friendlyPos="1"/>
        <access lane="739669598_0" pos="80.95" length="0.38" friendlyPos="1"/>
    </busStop>
    <busStop id="602732454" name="Henrik Wergelands gate (C)" lane="313459027#1_1" startPos="101.91" endPos="116.91" friendlyPos="true"/>
    <busStop id="6372559485" name="Kristian IVs gate" lane="248614409#0_0" startPos="10.19" endPos="25.19" friendlyPos="true">
        <access lane="686161891#0_0" pos="0.00" length="39.65" friendlyPos="1"/>
        <access lane="686161893#1_0" pos="33.78" length="2.65" friendlyPos="1"/>
        <access lane="686161893#2_0" pos="0.00" length="37.07" friendlyPos="1"/>
        <access lane="739669573#0_0" pos="0.20" length="33.24" friendlyPos="1"/>
        <access lane="739669586#0_0" pos="16.22" length="36.72" friendlyPos="1"/>
    </busStop>
    <busStop id="6372559487" name="Kristian IVs gate" lane="581641871#0_0" startPos="15.73" endPos="30.73" friendlyPos="true">
        <access lane="581641994#1_0" pos="35.77" length="2.33" friendlyPos="1"/>
        <access lane="581641995_0" pos="37.75" length="38.90" friendlyPos="1"/>
        <access lane="686161895#0_0" pos="0.00" length="54.32" friendlyPos="1"/>
        <access lane="739669574#0_0" pos="0.00" length="53.48" friendlyPos="1"/>
        <access lane="739669586#6_0" pos="54.05" length="54.15" friendlyPos="1"/>
    </busStop>
    <busStop id="6372559915" name="13" lane="145335922#2_0" startPos="0.00" endPos="0.20" friendlyPos="true"/>
    <busStop id="6372559919" name="11" lane="145335922#1_0" startPos="0.00" endPos="15.00" friendlyPos="true"/>
    <busStop id="6372559921" name="2" lane="581641881#0_0" startPos="32.53" endPos="47.53" friendlyPos="true">
        <access lane="1256612927#0_0" pos="0.00" length="3.93" friendlyPos="1"/>
        <access lane="1256612928#0_0" pos="0.20" length="3.08" friendlyPos="1"/>
        <access lane="1256612928#1_0" pos="0.00" length="2.81" friendlyPos="1"/>
        <access lane="738342026#4_0" pos="12.14" length="1.09" friendlyPos="1"/>
        <access lane="738342026#5_0" pos="0.00" length="3.12" friendlyPos="1"/>
    </busStop>
    <busStop id="6372559924" name="12" lane="145335922#1_0" startPos="3.23" endPos="18.23" friendlyPos="true"/>
    <busStop id="6372559928" name="1" lane="581641883#1_0" startPos="32.92" endPos="47.92" friendlyPos="true">
        <access lane="145335494#1_0" pos="36.05" length="31.85" friendlyPos="1"/>
        <access lane="482049412#0_0" pos="0.00" length="33.03" friendlyPos="1"/>
        <access lane="482049417#0_0" pos="18.81" length="25.39" friendlyPos="1"/>
        <access lane="738342020#1_0" pos="41.29" length="31.58" friendlyPos="1"/>
        <access lane="738342022#3_0" pos="43.02" length="1.17" friendlyPos="1"/>
    </busStop>
    <busStop id="6372560797" name="Tollbodgata (Q)" lane="174980401#2_1" startPos="36.81" endPos="51.81" friendlyPos="true"/>
    <busStop id="6372560820" name="Henrik Wergelands gate (I)" lane="313459029#3_0" startPos="7.38" endPos="22.38" friendlyPos="true">
        <access lane="739669592#1_0" pos="0.00" length="26.23" friendlyPos="1"/>
        <access lane="739669596#0_0" pos="0.00" length="27.01" friendlyPos="1"/>
        <access lane="739669596#1_0" pos="0.00" length="28.05" friendlyPos="1"/>
        <access lane="739669597_0" pos="14.97" length="18.71" friendlyPos="1"/>
        <access lane="739669600_0" pos="14.93" length="0.56" friendlyPos="1"/>
    </busStop>
    <busStop id="6372560836" name="Samfundets skole sentrum" lane="172575708#4_0" startPos="20.42" endPos="35.42" friendlyPos="true">
        <access lane="-581641917#0_0" pos="0.00" length="40.20" friendlyPos="1"/>
        <access lane="581641917#0_0" pos="7.88" length="36.36" friendlyPos="1"/>
        <access lane="581641918#2_0" pos="17.96" length="45.62" friendlyPos="1"/>
        <access lane="739669586#5_0" pos="61.76" length="17.12" friendlyPos="1"/>
        <access lane="739669586#6_0" pos="0.00" length="42.38" friendlyPos="1"/>
    </busStop>
    <busStop id="6372565603" name="Rådhuset (N)" lane="174974218#1_0" startPos="100.78" endPos="115.78" friendlyPos="true">
        <access lane="-174974218#1_0" pos="8.44" length="10.97" friendlyPos="1"/>
        <access lane="738342054#0_0" pos="108.43" length="0.88" friendlyPos="1"/>
        <access lane="738342056#0_0" pos="0.20" length="21.25" friendlyPos="1"/>
        <access lane="738342056#1_0" pos="0.20" length="16.43" friendlyPos="1"/>
        <access lane="738342057#1_0" pos="0.00" length="20.45" friendlyPos="1"/>
    </busStop>
    <busStop id="6372565605" name="Rådhuset (M)" lane="174974218#1_0" startPos="41.76" endPos="56.76" friendlyPos="true">
        <access lane="-174974218#1_0" pos="67.46" length="9.67" friendlyPos="1"/>
        <access lane="686161883#0_0" pos="0.20" length="78.68" friendlyPos="1"/>
        <access lane="686161883#1_0" pos="0.00" length="77.87" friendlyPos="1"/>
        <access lane="686161884#0_0" pos="0.00" length="78.03" friendlyPos="1"/>
        <access lane="738342054#0_0" pos="49.41" length="1.91" friendlyPos="1"/>
    </busStop>
    <busStop id="6372565608" name="Rådhuset (K)" lane="68251740#1_0" startPos="36.76" endPos="51.76" friendlyPos="true">
        <access lane="-738342051#1_0" pos="36.51" length="32.30" friendlyPos="1"/>
        <access lane="686161884#0_0" pos="0.20" length="32.99" friendlyPos="1"/>
        <access lane="686161884#1_0" pos="17.45" length="3.56" friendlyPos="1"/>
        <access lane="686161886_0" pos="2.02" length="29.51" friendlyPos="1"/>
        <access lane="738342051#1_0" pos="19.09" length="35.30" friendlyPos="1"/>
    </busStop>
    <busStop id="6372566123" name="Vestre Strandgate (B)" lane="581641873#0_0" startPos="7.46" endPos="22.46" friendlyPos="true">
        <access lane="482049404#2_0" pos="0.20" length="19.18" friendlyPos="1"/>
        <access lane="738342020#1_0" pos="11.34" length="3.29" friendlyPos="1"/>
        <access lane="738342021#1_0" pos="12.81" length="21.67" friendlyPos="1"/>
        <access lane="738342022#2_0" pos="7.52" length="39.10" friendlyPos="1"/>
        <access lane="738342022#3_0" pos="11.48" length="32.20" friendlyPos="1"/>
    </busStop>
    <busStop id="6372567023" name="Gyldengården (J)" lane="581641869_0" startPos="14.63" endPos="29.63" friendlyPos="true">
        <access lane="686161887#1_0" pos="0.00" length="32.09" friendlyPos="1"/>
        <access lane="686161889#1_0" pos="41.88" length="3.00" friendlyPos="1"/>
        <access lane="686161889#2_0" pos="0.00" length="21.40" friendlyPos="1"/>
        <access lane="705960051_0" pos="21.64" length="18.49" friendlyPos="1"/>
        <access lane="739669582#0_0" pos="0.00" length="19.74" friendlyPos="1"/>
    </busStop>
    <busStop id="6436451255" name="Kristiansand" lane="273358244_0" startPos="0.00" endPos="76.92" friendlyPos="true">
        <access lane="-515843008_0" pos="0.00" length="40.95" friendlyPos="1"/>
        <access lane="172543837_0" pos="44.41" length="92.33" friendlyPos="1"/>
        <access lane="321272295_0" pos="0.00" length="124.00" friendlyPos="1"/>
        <access lane="515843008_0" pos="116.12" length="37.39" friendlyPos="1"/>
        <access lane="608627629_0" pos="0.20" length="67.86" friendlyPos="1"/>
    </busStop>
    <busStop id="8757353034" name="Vestre Strandgate (A)" lane="313459026#1_0" startPos="22.05" endPos="37.05" friendlyPos="true">
        <access lane="-278421874#0_0" pos="0.31" length="36.55" friendlyPos="1"/>
        <access lane="278423854#1_0" pos="135.37" length="30.35" friendlyPos="1"/>
        <access lane="738342018#2_0" pos="0.20" length="49.22" friendlyPos="1"/>
        <access lane="739669541#0_0" pos="0.20" length="48.65" friendlyPos="1"/>
        <access lane="739669541#1_0" pos="22.04" length="0.31" friendlyPos="1"/>
    </busStop>
</additional>
