<?xml version="1.0" encoding="UTF-8"?>

<!-- generated on 2025-05-07 20:54:10.535546 by $Id: ptlines2flows.py v1_3_1+0313-ccb31df3eb jakob.erdmann@dlr.de 2019-09-02 13:26:32 +0200 $ v1_22_0+0002-63e50f52594
<configuration>
    <net-file value="E:\SUMO\tools\2025-05-07-20-53-58\osm.net.xml.gz"/>
    <ptlines-file value="E:\SUMO\tools\2025-05-07-20-53-58\osm_ptlines.xml"/>
    <ptstops-file value="E:\SUMO\tools\2025-05-07-20-53-58\osm_stops.add.xml"/>
    <output-file value="E:\SUMO\tools\2025-05-07-20-53-58\osm_pt.rou.xml"/>
    <stopinfos-file value="E:\SUMO\tools\2025-05-07-20-53-58\stopinfos.xml"/>
    <routes-file value="E:\SUMO\tools\2025-05-07-20-53-58\vehroutes.xml"/>
    <trips-file value="E:\SUMO\tools\2025-05-07-20-53-58\trips.trips.xml"/>
    <end value="600.0"/>
    <min-stops value="0"/>
    <extend-to-fringe value="True"/>
    <random-begin value="True"/>
    <seed value="42"/>
    <ignore-errors value="True"/>
    <vtype-prefix value="pt_"/>
    <verbose value="True"/>
</configuration>
-->

<routes xmlns:xsi="http://www.w3.org/2001/XMLSchema-instance" xsi:noNamespaceSchemaLocation="http://sumo.dlr.de/xsd/routes_file.xsd">
    <vType id="pt_bus" vClass="bus" speedFactor="0.95"/>
    <vType id="pt_tram" vClass="tram" speedFactor="1.0"/>
    <vType id="pt_train" vClass="rail"/>
    <vType id="pt_subway" vClass="subway"/>
    <vType id="pt_light_rail" vClass="rail_urban"/>
    <vType id="pt_monorail" vClass="rail_urban"/>
    <vType id="pt_trolleybus" vClass="bus" speedFactor="0.95"/>
    <vType id="pt_minibus" vClass="bus" speedFactor="0.95"/>
    <vType id="pt_share_taxi" vClass="taxi" speedFactor="0.95"/>
    <vType id="pt_aerialway" vClass="cable_car" length="2.5" width="2" personCapacity="4"/>
    <vType id="pt_ferry" vClass="ship"/>
    <trip id="0_ferry_E_39:0" type="pt_ferry" depart="15.0" departLane="best" from="375649997" to="375649997">
        <stop busStop="3789991174" duration="30"/>  <!-- Kristiansand -->
    </trip>
    <trip id="1_ferry_E_39:1" type="pt_ferry" depart="17.0" departLane="best" from="375649997" to="375649997">
        <stop busStop="3789991174" duration="30"/>  <!-- Kristiansand -->
    </trip>
    <trip id="2_ferry_Emden_-_Kristiansand:0" type="pt_ferry" depart="52.0" departLane="best" from="375649997" to="375649997">
        <stop busStop="3789991174" duration="30"/>  <!-- Kristiansand -->
    </trip>
    <trip id="3_train_50:0" type="pt_train" depart="131.0" departLane="best" from="273358244" to="273358244">
        <stop busStop="6436451255" duration="30"/>  <!-- Kristiansand -->
    </trip>
    <trip id="4_train_50:1" type="pt_train" depart="133.0" departLane="best" from="273358244" to="273358244">
        <stop busStop="6436451255" duration="30"/>  <!-- Kristiansand -->
    </trip>
    <trip id="5_train_F5:0" type="pt_train" depart="165.0" departLane="best" from="41973980#0" to="41973980#1">
        <stop busStop="5594450719" duration="30"/>  <!-- Kristiansand -->
    </trip>
    <trip id="6_train_F5:1" type="pt_train" depart="253.0" departLane="best" from="41973980#0" to="41973980#1">
        <stop busStop="5594450719" duration="30"/>  <!-- Kristiansand -->
    </trip>
    <trip id="7_train_F5:2" type="pt_train" depart="383.0" departLane="best" from="686689403" to="686689403">
        <stop busStop="6009935309" duration="30"/>  <!-- Kristiansand -->
    </trip>
    <trip id="8_train_F5:3" type="pt_train" depart="406.0" departLane="best" from="686689403" to="686689403">
        <stop busStop="6009935309" duration="30"/>  <!-- Kristiansand -->
    </trip>
    <trip id="9_train_F5:4" type="pt_train" depart="441.0" departLane="best" from="686689403" to="686689403">
        <stop busStop="6009935309" duration="30"/>  <!-- Kristiansand -->
    </trip>
    <trip id="10_train_F5:5" type="pt_train" depart="535.0" departLane="best" from="686689403" to="686689403">
        <stop busStop="6009935309" duration="30"/>  <!-- Kristiansand -->
    </trip>
</routes>
